
---------- Begin Simulation Statistics ----------
simSeconds                                   0.177681                       # Number of seconds simulated (Second)
simTicks                                 177680621188                       # Number of ticks simulated (Tick)
finalTick                                19737523125596                       # Number of ticks from beginning of simulation (restored from checkpoints and never reset) (Tick)
simFreq                                  1000000000000                       # The number of ticks per simulated second ((Tick/Second))
hostSeconds                                   2087.39                       # Real time elapsed on the host (Second)
hostTickRate                                 85121096                       # The number of ticks simulated per host second (ticks/s) ((Tick/Second))
hostMemory                                    4993884                       # Number of bytes of host memory used (Byte)
simInsts                                   9071041449                       # Number of instructions simulated (Count)
simOps                                     9597761686                       # Number of ops (including micro ops) simulated (Count)
hostInstRate                                  4345645                       # Simulator instruction rate (inst/s) ((Count/Second))
hostOpRate                                    4597980                       # Simulator op (including micro ops) rate (op/s) ((Count/Second))
board.cache_hierarchy.ruby_system.delayHistogram::bucket_size          512                       # delay histogram for all message (Unspecified)
board.cache_hierarchy.ruby_system.delayHistogram::max_bucket         5119                       # delay histogram for all message (Unspecified)
board.cache_hierarchy.ruby_system.delayHistogram::samples     27013121                       # delay histogram for all message (Unspecified)
board.cache_hierarchy.ruby_system.delayHistogram::mean     0.507845                       # delay histogram for all message (Unspecified)
board.cache_hierarchy.ruby_system.delayHistogram::stdev     2.835326                       # delay histogram for all message (Unspecified)
board.cache_hierarchy.ruby_system.delayHistogram |    27013049    100.00%    100.00% |          60      0.00%    100.00% |           8      0.00%    100.00% |           2      0.00%    100.00% |           1      0.00%    100.00% |           1      0.00%    100.00% |           0      0.00%    100.00% |           0      0.00%    100.00% |           0      0.00%    100.00% |           0      0.00%    100.00% # delay histogram for all message (Unspecified)
board.cache_hierarchy.ruby_system.delayHistogram::total     27013121                       # delay histogram for all message (Unspecified)
board.cache_hierarchy.ruby_system.m_outstandReqHistSeqr::bucket_size            1                       (Unspecified)
board.cache_hierarchy.ruby_system.m_outstandReqHistSeqr::max_bucket            9                       (Unspecified)
board.cache_hierarchy.ruby_system.m_outstandReqHistSeqr::samples   1214485440                       (Unspecified)
board.cache_hierarchy.ruby_system.m_outstandReqHistSeqr::mean     1.000485                       (Unspecified)
board.cache_hierarchy.ruby_system.m_outstandReqHistSeqr::gmean     1.000336                       (Unspecified)
board.cache_hierarchy.ruby_system.m_outstandReqHistSeqr::stdev     0.022016                       (Unspecified)
board.cache_hierarchy.ruby_system.m_outstandReqHistSeqr |           0      0.00%      0.00% |  1213896507     99.95%     99.95% |      588933      0.05%    100.00% |           0      0.00%    100.00% |           0      0.00%    100.00% |           0      0.00%    100.00% |           0      0.00%    100.00% |           0      0.00%    100.00% |           0      0.00%    100.00% |           0      0.00%    100.00% (Unspecified)
board.cache_hierarchy.ruby_system.m_outstandReqHistSeqr::total   1214485440                       (Unspecified)
board.cache_hierarchy.ruby_system.m_latencyHistSeqr::bucket_size          256                       (Unspecified)
board.cache_hierarchy.ruby_system.m_latencyHistSeqr::max_bucket         2559                       (Unspecified)
board.cache_hierarchy.ruby_system.m_latencyHistSeqr::samples   1214485439                       (Unspecified)
board.cache_hierarchy.ruby_system.m_latencyHistSeqr::mean     1.207704                       (Unspecified)
board.cache_hierarchy.ruby_system.m_latencyHistSeqr::gmean     1.022628                       (Unspecified)
board.cache_hierarchy.ruby_system.m_latencyHistSeqr::stdev     5.831039                       (Unspecified)
board.cache_hierarchy.ruby_system.m_latencyHistSeqr |  1214424939    100.00%    100.00% |       45428      0.00%    100.00% |        3684      0.00%    100.00% |        3405      0.00%    100.00% |        7270      0.00%    100.00% |         621      0.00%    100.00% |          82      0.00%    100.00% |           9      0.00%    100.00% |           1      0.00%    100.00% |           0      0.00%    100.00% (Unspecified)
board.cache_hierarchy.ruby_system.m_latencyHistSeqr::total   1214485439                       (Unspecified)
board.cache_hierarchy.ruby_system.m_hitLatencyHistSeqr::bucket_size            1                       (Unspecified)
board.cache_hierarchy.ruby_system.m_hitLatencyHistSeqr::max_bucket            9                       (Unspecified)
board.cache_hierarchy.ruby_system.m_hitLatencyHistSeqr::samples   1204723518                       (Unspecified)
board.cache_hierarchy.ruby_system.m_hitLatencyHistSeqr::mean            1                       (Unspecified)
board.cache_hierarchy.ruby_system.m_hitLatencyHistSeqr::gmean            1                       (Unspecified)
board.cache_hierarchy.ruby_system.m_hitLatencyHistSeqr |           0      0.00%      0.00% |  1204723518    100.00%    100.00% |           0      0.00%    100.00% |           0      0.00%    100.00% |           0      0.00%    100.00% |           0      0.00%    100.00% |           0      0.00%    100.00% |           0      0.00%    100.00% |           0      0.00%    100.00% |           0      0.00%    100.00% (Unspecified)
board.cache_hierarchy.ruby_system.m_hitLatencyHistSeqr::total   1204723518                       (Unspecified)
board.cache_hierarchy.ruby_system.m_missLatencyHistSeqr::bucket_size          256                       (Unspecified)
board.cache_hierarchy.ruby_system.m_missLatencyHistSeqr::max_bucket         2559                       (Unspecified)
board.cache_hierarchy.ruby_system.m_missLatencyHistSeqr::samples      9761921                       (Unspecified)
board.cache_hierarchy.ruby_system.m_missLatencyHistSeqr::mean    26.840514                       (Unspecified)
board.cache_hierarchy.ruby_system.m_missLatencyHistSeqr::gmean    16.180713                       (Unspecified)
board.cache_hierarchy.ruby_system.m_missLatencyHistSeqr::stdev    59.730383                       (Unspecified)
board.cache_hierarchy.ruby_system.m_missLatencyHistSeqr |     9701421     99.38%     99.38% |       45428      0.47%     99.85% |        3684      0.04%     99.88% |        3405      0.03%     99.92% |        7270      0.07%     99.99% |         621      0.01%    100.00% |          82      0.00%    100.00% |           9      0.00%    100.00% |           1      0.00%    100.00% |           0      0.00%    100.00% (Unspecified)
board.cache_hierarchy.ruby_system.m_missLatencyHistSeqr::total      9761921                       (Unspecified)
board.cache_hierarchy.ruby_system.delayVCHist.vnet_0::bucket_size          512                       # delay histogram for vnet_0 (Unspecified)
board.cache_hierarchy.ruby_system.delayVCHist.vnet_0::max_bucket         5119                       # delay histogram for vnet_0 (Unspecified)
board.cache_hierarchy.ruby_system.delayVCHist.vnet_0::samples     12220229                       # delay histogram for vnet_0 (Unspecified)
board.cache_hierarchy.ruby_system.delayVCHist.vnet_0::mean     0.602486                       # delay histogram for vnet_0 (Unspecified)
board.cache_hierarchy.ruby_system.delayVCHist.vnet_0::stdev     3.606523                       # delay histogram for vnet_0 (Unspecified)
board.cache_hierarchy.ruby_system.delayVCHist.vnet_0 |    12220157    100.00%    100.00% |          60      0.00%    100.00% |           8      0.00%    100.00% |           2      0.00%    100.00% |           1      0.00%    100.00% |           1      0.00%    100.00% |           0      0.00%    100.00% |           0      0.00%    100.00% |           0      0.00%    100.00% |           0      0.00%    100.00% # delay histogram for vnet_0 (Unspecified)
board.cache_hierarchy.ruby_system.delayVCHist.vnet_0::total     12220229                       # delay histogram for vnet_0 (Unspecified)
board.cache_hierarchy.ruby_system.delayVCHist.vnet_1::bucket_size           16                       # delay histogram for vnet_1 (Unspecified)
board.cache_hierarchy.ruby_system.delayVCHist.vnet_1::max_bucket          159                       # delay histogram for vnet_1 (Unspecified)
board.cache_hierarchy.ruby_system.delayVCHist.vnet_1::samples     13476822                       # delay histogram for vnet_1 (Unspecified)
board.cache_hierarchy.ruby_system.delayVCHist.vnet_1::mean     0.471591                       # delay histogram for vnet_1 (Unspecified)
board.cache_hierarchy.ruby_system.delayVCHist.vnet_1::stdev     2.069966                       # delay histogram for vnet_1 (Unspecified)
board.cache_hierarchy.ruby_system.delayVCHist.vnet_1 |    13467339     99.93%     99.93% |        9101      0.07%    100.00% |         310      0.00%    100.00% |          51      0.00%    100.00% |          20      0.00%    100.00% |           1      0.00%    100.00% |           0      0.00%    100.00% |           0      0.00%    100.00% |           0      0.00%    100.00% |           0      0.00%    100.00% # delay histogram for vnet_1 (Unspecified)
board.cache_hierarchy.ruby_system.delayVCHist.vnet_1::total     13476822                       # delay histogram for vnet_1 (Unspecified)
board.cache_hierarchy.ruby_system.delayVCHist.vnet_2::bucket_size            1                       # delay histogram for vnet_2 (Unspecified)
board.cache_hierarchy.ruby_system.delayVCHist.vnet_2::max_bucket            9                       # delay histogram for vnet_2 (Unspecified)
board.cache_hierarchy.ruby_system.delayVCHist.vnet_2::samples      1316070                       # delay histogram for vnet_2 (Unspecified)
board.cache_hierarchy.ruby_system.delayVCHist.vnet_2::mean     0.000328                       # delay histogram for vnet_2 (Unspecified)
board.cache_hierarchy.ruby_system.delayVCHist.vnet_2::stdev     0.025620                       # delay histogram for vnet_2 (Unspecified)
board.cache_hierarchy.ruby_system.delayVCHist.vnet_2 |     1315854     99.98%     99.98% |           0      0.00%     99.98% |         216      0.02%    100.00% |           0      0.00%    100.00% |           0      0.00%    100.00% |           0      0.00%    100.00% |           0      0.00%    100.00% |           0      0.00%    100.00% |           0      0.00%    100.00% |           0      0.00%    100.00% # delay histogram for vnet_2 (Unspecified)
board.cache_hierarchy.ruby_system.delayVCHist.vnet_2::total      1316070                       # delay histogram for vnet_2 (Unspecified)
board.cache_hierarchy.ruby_system.Directory_Controller.Fetch |      335703     49.41%     49.41% |      343753     50.59%    100.00% (Unspecified)
board.cache_hierarchy.ruby_system.Directory_Controller.Fetch::total       679456                       (Unspecified)
board.cache_hierarchy.ruby_system.Directory_Controller.Data |      161756     46.28%     46.28% |      187750     53.72%    100.00% (Unspecified)
board.cache_hierarchy.ruby_system.Directory_Controller.Data::total       349506                       (Unspecified)
board.cache_hierarchy.ruby_system.Directory_Controller.Memory_Data |      335705     49.41%     49.41% |      343753     50.59%    100.00% (Unspecified)
board.cache_hierarchy.ruby_system.Directory_Controller.Memory_Data::total       679458                       (Unspecified)
board.cache_hierarchy.ruby_system.Directory_Controller.Memory_Ack |      162780     46.30%     46.30% |      188774     53.70%    100.00% (Unspecified)
board.cache_hierarchy.ruby_system.Directory_Controller.Memory_Ack::total       351554                       (Unspecified)
board.cache_hierarchy.ruby_system.Directory_Controller.DMA_READ |           3    100.00%    100.00% |           0      0.00%    100.00% (Unspecified)
board.cache_hierarchy.ruby_system.Directory_Controller.DMA_READ::total            3                       (Unspecified)
board.cache_hierarchy.ruby_system.Directory_Controller.DMA_WRITE |        1024     50.00%     50.00% |        1024     50.00%    100.00% (Unspecified)
board.cache_hierarchy.ruby_system.Directory_Controller.DMA_WRITE::total         2048                       (Unspecified)
board.cache_hierarchy.ruby_system.Directory_Controller.CleanReplacement |      169851     52.79%     52.79% |      151907     47.21%    100.00% (Unspecified)
board.cache_hierarchy.ruby_system.Directory_Controller.CleanReplacement::total       321758                       (Unspecified)
board.cache_hierarchy.ruby_system.Directory_Controller.I.Fetch |      335703     49.41%     49.41% |      343753     50.59%    100.00% (Unspecified)
board.cache_hierarchy.ruby_system.Directory_Controller.I.Fetch::total       679456                       (Unspecified)
board.cache_hierarchy.ruby_system.Directory_Controller.I.DMA_READ |           2    100.00%    100.00% |           0      0.00%    100.00% (Unspecified)
board.cache_hierarchy.ruby_system.Directory_Controller.I.DMA_READ::total            2                       (Unspecified)
board.cache_hierarchy.ruby_system.Directory_Controller.I.DMA_WRITE |        1024     50.00%     50.00% |        1024     50.00%    100.00% (Unspecified)
board.cache_hierarchy.ruby_system.Directory_Controller.I.DMA_WRITE::total         2048                       (Unspecified)
board.cache_hierarchy.ruby_system.Directory_Controller.ID.Memory_Data |           2    100.00%    100.00% |           0      0.00%    100.00% (Unspecified)
board.cache_hierarchy.ruby_system.Directory_Controller.ID.Memory_Data::total            2                       (Unspecified)
board.cache_hierarchy.ruby_system.Directory_Controller.ID_W.Memory_Ack |        1024     50.00%     50.00% |        1024     50.00%    100.00% (Unspecified)
board.cache_hierarchy.ruby_system.Directory_Controller.ID_W.Memory_Ack::total         2048                       (Unspecified)
board.cache_hierarchy.ruby_system.Directory_Controller.M.Data |      161755     46.28%     46.28% |      187750     53.72%    100.00% (Unspecified)
board.cache_hierarchy.ruby_system.Directory_Controller.M.Data::total       349505                       (Unspecified)
board.cache_hierarchy.ruby_system.Directory_Controller.M.DMA_READ |           1    100.00%    100.00% |           0      0.00%    100.00% (Unspecified)
board.cache_hierarchy.ruby_system.Directory_Controller.M.DMA_READ::total            1                       (Unspecified)
board.cache_hierarchy.ruby_system.Directory_Controller.M.CleanReplacement |      169851     52.79%     52.79% |      151907     47.21%    100.00% (Unspecified)
board.cache_hierarchy.ruby_system.Directory_Controller.M.CleanReplacement::total       321758                       (Unspecified)
board.cache_hierarchy.ruby_system.Directory_Controller.IM.Memory_Data |      335703     49.41%     49.41% |      343753     50.59%    100.00% (Unspecified)
board.cache_hierarchy.ruby_system.Directory_Controller.IM.Memory_Data::total       679456                       (Unspecified)
board.cache_hierarchy.ruby_system.Directory_Controller.MI.Memory_Ack |      161755     46.28%     46.28% |      187750     53.72%    100.00% (Unspecified)
board.cache_hierarchy.ruby_system.Directory_Controller.MI.Memory_Ack::total       349505                       (Unspecified)
board.cache_hierarchy.ruby_system.Directory_Controller.M_DRD.Data |           1    100.00%    100.00% |           0      0.00%    100.00% (Unspecified)
board.cache_hierarchy.ruby_system.Directory_Controller.M_DRD.Data::total            1                       (Unspecified)
board.cache_hierarchy.ruby_system.Directory_Controller.M_DRDI.Memory_Ack |           1    100.00%    100.00% |           0      0.00%    100.00% (Unspecified)
board.cache_hierarchy.ruby_system.Directory_Controller.M_DRDI.Memory_Ack::total            1                       (Unspecified)
board.cache_hierarchy.ruby_system.DMA_Controller.ReadRequest |           3    100.00%    100.00% |           0      0.00%    100.00% (Unspecified)
board.cache_hierarchy.ruby_system.DMA_Controller.ReadRequest::total            3                       (Unspecified)
board.cache_hierarchy.ruby_system.DMA_Controller.WriteRequest |        2048    100.00%    100.00% |           0      0.00%    100.00% (Unspecified)
board.cache_hierarchy.ruby_system.DMA_Controller.WriteRequest::total         2048                       (Unspecified)
board.cache_hierarchy.ruby_system.DMA_Controller.Data |           3    100.00%    100.00% |           0      0.00%    100.00% (Unspecified)
board.cache_hierarchy.ruby_system.DMA_Controller.Data::total            3                       (Unspecified)
board.cache_hierarchy.ruby_system.DMA_Controller.Ack |        2048    100.00%    100.00% |           0      0.00%    100.00% (Unspecified)
board.cache_hierarchy.ruby_system.DMA_Controller.Ack::total         2048                       (Unspecified)
board.cache_hierarchy.ruby_system.DMA_Controller.READY.ReadRequest |           3    100.00%    100.00% |           0      0.00%    100.00% (Unspecified)
board.cache_hierarchy.ruby_system.DMA_Controller.READY.ReadRequest::total            3                       (Unspecified)
board.cache_hierarchy.ruby_system.DMA_Controller.READY.WriteRequest |        2048    100.00%    100.00% |           0      0.00%    100.00% (Unspecified)
board.cache_hierarchy.ruby_system.DMA_Controller.READY.WriteRequest::total         2048                       (Unspecified)
board.cache_hierarchy.ruby_system.DMA_Controller.BUSY_RD.Data |           3    100.00%    100.00% |           0      0.00%    100.00% (Unspecified)
board.cache_hierarchy.ruby_system.DMA_Controller.BUSY_RD.Data::total            3                       (Unspecified)
board.cache_hierarchy.ruby_system.DMA_Controller.BUSY_WR.Ack |        2048    100.00%    100.00% |           0      0.00%    100.00% (Unspecified)
board.cache_hierarchy.ruby_system.DMA_Controller.BUSY_WR.Ack::total         2048                       (Unspecified)
board.cache_hierarchy.ruby_system.L1Cache_Controller.Load |     8129960      5.84%      5.84% |     7969566      5.72%     11.56% |    18794527     13.49%     25.04% |     7888419      5.66%     30.71% |     8221436      5.90%     36.61% |     8122632      5.83%     42.44% |     7971562      5.72%     48.16% |     8055773      5.78%     53.94% |     8128600      5.83%     59.78% |     7947632      5.70%     65.48% |     7778043      5.58%     71.06% |     8009214      5.75%     76.81% |     8004387      5.75%     82.56% |     8194906      5.88%     88.44% |     8062192      5.79%     94.22% |     8047508      5.78%    100.00% (Unspecified)
board.cache_hierarchy.ruby_system.L1Cache_Controller.Load::total    139326357                       (Unspecified)
board.cache_hierarchy.ruby_system.L1Cache_Controller.Ifetch |    60431916      5.90%      5.90% |    59407489      5.80%     11.70% |   126597984     12.36%     24.07% |    58766400      5.74%     29.80% |    60423421      5.90%     35.70% |    60349139      5.89%     41.60% |    59488655      5.81%     47.41% |    60087786      5.87%     53.27% |    60518213      5.91%     59.18% |    59288604      5.79%     64.97% |    58012142      5.67%     70.64% |    59705193      5.83%     76.47% |    59736202      5.83%     82.30% |    61048403      5.96%     88.26% |    60137722      5.87%     94.14% |    60036799      5.86%    100.00% (Unspecified)
board.cache_hierarchy.ruby_system.L1Cache_Controller.Ifetch::total   1024036068                       (Unspecified)
board.cache_hierarchy.ruby_system.L1Cache_Controller.Store |     2919212      5.71%      5.71% |     2830047      5.54%     11.25% |     8146854     15.94%     27.18% |     2804274      5.49%     32.67% |     3016874      5.90%     38.57% |     2898075      5.67%     44.24% |     2827430      5.53%     49.77% |     2858346      5.59%     55.36% |     2899940      5.67%     61.03% |     2826113      5.53%     66.56% |     2766320      5.41%     71.97% |     2850883      5.58%     77.55% |     2844796      5.56%     83.11% |     2915551      5.70%     88.81% |     2861157      5.60%     94.41% |     2857142      5.59%    100.00% (Unspecified)
board.cache_hierarchy.ruby_system.L1Cache_Controller.Store::total     51123014                       (Unspecified)
board.cache_hierarchy.ruby_system.L1Cache_Controller.Inv |       81130      6.64%      6.64% |       78350      6.41%     13.05% |       48730      3.99%     17.03% |       78549      6.43%     23.46% |       79212      6.48%     29.94% |       79812      6.53%     36.47% |       77224      6.32%     42.78% |       78763      6.44%     49.23% |       80689      6.60%     55.83% |       77023      6.30%     62.13% |       77189      6.31%     68.44% |       77238      6.32%     74.76% |       75716      6.19%     80.96% |       77667      6.35%     87.31% |       78271      6.40%     93.71% |       76855      6.29%    100.00% (Unspecified)
board.cache_hierarchy.ruby_system.L1Cache_Controller.Inv::total      1222418                       (Unspecified)
board.cache_hierarchy.ruby_system.L1Cache_Controller.L1_Replacement |      593749      6.35%      6.35% |      581042      6.21%     12.56% |      606853      6.49%     19.05% |      574270      6.14%     25.19% |      578669      6.19%     31.38% |      590887      6.32%     37.70% |      577942      6.18%     43.88% |      588627      6.29%     50.17% |      589553      6.30%     56.47% |      578587      6.19%     62.66% |      565700      6.05%     68.71% |      580145      6.20%     74.91% |      577165      6.17%     81.08% |      597127      6.38%     87.47% |      586105      6.27%     93.73% |      585947      6.27%    100.00% (Unspecified)
board.cache_hierarchy.ruby_system.L1Cache_Controller.L1_Replacement::total      9352368                       (Unspecified)
board.cache_hierarchy.ruby_system.L1Cache_Controller.Fwd_GETX |        1455      6.76%      6.76% |        1481      6.88%     13.64% |         362      1.68%     15.33% |        1606      7.46%     22.79% |        1642      7.63%     30.42% |        1355      6.30%     36.72% |        1391      6.46%     43.18% |        1263      5.87%     49.05% |        1466      6.81%     55.86% |        1277      5.93%     61.80% |        1164      5.41%     67.21% |        1458      6.78%     73.98% |        1548      7.19%     81.18% |        1468      6.82%     88.00% |        1155      5.37%     93.37% |        1427      6.63%    100.00% (Unspecified)
board.cache_hierarchy.ruby_system.L1Cache_Controller.Fwd_GETX::total        21518                       (Unspecified)
board.cache_hierarchy.ruby_system.L1Cache_Controller.Fwd_GETS |        5460      7.57%      7.57% |        4655      6.45%     14.02% |        2238      3.10%     17.13% |        4733      6.56%     23.69% |        4268      5.92%     29.60% |        4870      6.75%     36.35% |        4272      5.92%     42.28% |        4375      6.07%     48.34% |        4815      6.68%     55.02% |        4278      5.93%     60.95% |        4675      6.48%     67.43% |        4210      5.84%     73.27% |        5049      7.00%     80.26% |        4874      6.76%     87.02% |        4498      6.24%     93.26% |        4864      6.74%    100.00% (Unspecified)
board.cache_hierarchy.ruby_system.L1Cache_Controller.Fwd_GETS::total        72134                       (Unspecified)
board.cache_hierarchy.ruby_system.L1Cache_Controller.Data |         518      8.84%      8.84% |         442      7.54%     16.38% |         127      2.17%     18.55% |         429      7.32%     25.87% |         563      9.61%     35.47% |         212      3.62%     39.09% |         417      7.11%     46.20% |         148      2.53%     48.73% |         408      6.96%     55.69% |         293      5.00%     60.69% |         114      1.95%     62.63% |         390      6.65%     69.29% |         482      8.22%     77.51% |         392      6.69%     84.20% |         462      7.88%     92.08% |         464      7.92%    100.00% (Unspecified)
board.cache_hierarchy.ruby_system.L1Cache_Controller.Data::total         5861                       (Unspecified)
board.cache_hierarchy.ruby_system.L1Cache_Controller.Data_Exclusive |       30766      4.29%      4.29% |       29350      4.09%      8.39% |      270826     37.78%     46.17% |       30172      4.21%     50.38% |       29378      4.10%     54.48% |       31870      4.45%     58.92% |       28932      4.04%     62.96% |       30329      4.23%     67.19% |       30705      4.28%     71.47% |       29445      4.11%     75.58% |       29246      4.08%     79.66% |       28951      4.04%     83.70% |       29149      4.07%     87.77% |       29464      4.11%     91.88% |       28557      3.98%     95.86% |       29662      4.14%    100.00% (Unspecified)
board.cache_hierarchy.ruby_system.L1Cache_Controller.Data_Exclusive::total       716802                       (Unspecified)
board.cache_hierarchy.ruby_system.L1Cache_Controller.DataS_fromL1 |        4885      6.77%      6.77% |        5368      7.44%     14.21% |        1686      2.34%     16.55% |        5320      7.38%     23.93% |        5169      7.17%     31.09% |        4924      6.83%     37.92% |        3942      5.46%     43.38% |        4610      6.39%     49.77% |        5161      7.15%     56.93% |        4078      5.65%     62.58% |        4367      6.05%     68.64% |        4529      6.28%     74.91% |        4322      5.99%     80.91% |        4429      6.14%     87.05% |        5304      7.35%     94.40% |        4040      5.60%    100.00% (Unspecified)
board.cache_hierarchy.ruby_system.L1Cache_Controller.DataS_fromL1::total        72134                       (Unspecified)
board.cache_hierarchy.ruby_system.L1Cache_Controller.Data_all_Acks |      582437      6.51%      6.51% |      569543      6.37%     12.89% |      354499      3.97%     16.85% |      562974      6.30%     23.15% |      568060      6.35%     29.50% |      577703      6.46%     35.96% |      568514      6.36%     42.32% |      577541      6.46%     48.78% |      578932      6.48%     55.26% |      568357      6.36%     61.62% |      556450      6.22%     67.84% |      570512      6.38%     74.22% |      566690      6.34%     80.56% |      586248      6.56%     87.12% |      576308      6.45%     93.56% |      575451      6.44%    100.00% (Unspecified)
board.cache_hierarchy.ruby_system.L1Cache_Controller.Data_all_Acks::total      8940219                       (Unspecified)
board.cache_hierarchy.ruby_system.L1Cache_Controller.Ack |       11445     22.92%     22.92% |        3126      6.26%     29.18% |        2046      4.10%     33.28% |        2156      4.32%     37.59% |        2662      5.33%     42.92% |        2785      5.58%     48.50% |        2467      4.94%     53.44% |        2169      4.34%     57.79% |        2867      5.74%     63.53% |        2720      5.45%     68.97% |        1977      3.96%     72.93% |        2319      4.64%     77.58% |        2733      5.47%     83.05% |        3112      6.23%     89.28% |        2274      4.55%     93.84% |        3078      6.16%    100.00% (Unspecified)
board.cache_hierarchy.ruby_system.L1Cache_Controller.Ack::total        49936                       (Unspecified)
board.cache_hierarchy.ruby_system.L1Cache_Controller.Ack_all |        3329     10.16%     10.16% |        2492      7.61%     17.77% |         793      2.42%     20.19% |        1706      5.21%     25.39% |        2047      6.25%     31.64% |        1883      5.75%     37.39% |        2188      6.68%     44.06% |        1535      4.68%     48.75% |        2070      6.32%     55.07% |        2251      6.87%     61.94% |        1351      4.12%     66.06% |        1819      5.55%     71.61% |        2443      7.46%     79.07% |        2499      7.63%     86.69% |        1780      5.43%     92.13% |        2580      7.87%    100.00% (Unspecified)
board.cache_hierarchy.ruby_system.L1Cache_Controller.Ack_all::total        32766                       (Unspecified)
board.cache_hierarchy.ruby_system.L1Cache_Controller.WB_Ack |       41108      3.84%      3.84% |       39600      3.70%      7.55% |      456966     42.72%     50.27% |       39813      3.72%     53.99% |       39459      3.69%     57.68% |       42646      3.99%     61.67% |       39491      3.69%     65.36% |       41468      3.88%     69.23% |       41857      3.91%     73.15% |       41519      3.88%     77.03% |       39189      3.66%     80.69% |       41122      3.84%     84.54% |       40605      3.80%     88.33% |       42203      3.95%     92.28% |       40627      3.80%     96.08% |       41955      3.92%    100.00% (Unspecified)
board.cache_hierarchy.ruby_system.L1Cache_Controller.WB_Ack::total      1069628                       (Unspecified)
board.cache_hierarchy.ruby_system.L1Cache_Controller.NP.Load |      501025      6.50%      6.50% |      493916      6.40%     12.90% |      281586      3.65%     16.55% |      488197      6.33%     22.88% |      492766      6.39%     29.27% |      501605      6.50%     35.77% |      491720      6.37%     42.14% |      500090      6.48%     48.63% |      499972      6.48%     55.11% |      492253      6.38%     61.49% |      481408      6.24%     67.73% |      492589      6.39%     74.12% |      492137      6.38%     80.50% |      506040      6.56%     87.06% |      498620      6.46%     93.52% |      499674      6.48%    100.00% (Unspecified)
board.cache_hierarchy.ruby_system.L1Cache_Controller.NP.Load::total      7713598                       (Unspecified)
board.cache_hierarchy.ruby_system.L1Cache_Controller.NP.Ifetch |       71881      6.32%      6.32% |       67021      5.90%     12.22% |      128722     11.32%     23.54% |       65870      5.79%     29.34% |       65408      5.75%     35.09% |       68271      6.01%     41.10% |       66487      5.85%     46.95% |       68028      5.98%     52.93% |       68637      6.04%     58.97% |       66064      5.81%     64.78% |       65017      5.72%     70.50% |       67228      5.91%     76.41% |       65047      5.72%     82.14% |       70349      6.19%     88.32% |       67030      5.90%     94.22% |       65698      5.78%    100.00% (Unspecified)
board.cache_hierarchy.ruby_system.L1Cache_Controller.NP.Ifetch::total      1136758                       (Unspecified)
board.cache_hierarchy.ruby_system.L1Cache_Controller.NP.Store |       21867      4.22%      4.22% |       21129      4.08%      8.29% |      197569     38.11%     46.41% |       21227      4.09%     50.50% |       21519      4.15%     54.65% |       22035      4.25%     58.90% |       20759      4.00%     62.91% |       21533      4.15%     67.06% |       21968      4.24%     71.30% |       21294      4.11%     75.41% |       20299      3.92%     79.32% |       21352      4.12%     83.44% |       21005      4.05%     87.49% |       21762      4.20%     91.69% |       21479      4.14%     95.83% |       21599      4.17%    100.00% (Unspecified)
board.cache_hierarchy.ruby_system.L1Cache_Controller.NP.Store::total       518396                       (Unspecified)
board.cache_hierarchy.ruby_system.L1Cache_Controller.NP.Inv |       46361      6.75%      6.75% |       44632      6.50%     13.25% |       16624      2.42%     15.67% |       45086      6.57%     22.24% |       45078      6.56%     28.80% |       45776      6.67%     35.47% |       44303      6.45%     41.92% |       44787      6.52%     48.44% |       45058      6.56%     55.00% |       44210      6.44%     61.44% |       43405      6.32%     67.76% |       44174      6.43%     74.19% |       43642      6.36%     80.55% |       45064      6.56%     87.11% |       44414      6.47%     93.58% |       44110      6.42%    100.00% (Unspecified)
board.cache_hierarchy.ruby_system.L1Cache_Controller.NP.Inv::total       686724                       (Unspecified)
board.cache_hierarchy.ruby_system.L1Cache_Controller.I.Load |        7347      5.87%      5.87% |        7824      6.25%     12.12% |        5854      4.68%     16.80% |        8675      6.93%     23.73% |        8383      6.70%     30.43% |        7836      6.26%     36.70% |        7866      6.29%     42.98% |        8099      6.47%     49.45% |        8175      6.53%     55.99% |        7532      6.02%     62.01% |        8245      6.59%     68.60% |        8212      6.56%     75.16% |        7618      6.09%     81.25% |        7589      6.06%     87.31% |        8338      6.66%     93.97% |        7540      6.03%    100.00% (Unspecified)
board.cache_hierarchy.ruby_system.L1Cache_Controller.I.Load::total       125133                       (Unspecified)
board.cache_hierarchy.ruby_system.L1Cache_Controller.I.Ifetch |       12633      6.77%      6.77% |       11473      6.15%     12.91% |       11361      6.09%     19.00% |       11411      6.11%     25.11% |       11553      6.19%     31.30% |       11510      6.17%     37.46% |       11508      6.16%     43.63% |       11381      6.10%     49.72% |       12929      6.93%     56.65% |       11563      6.19%     62.84% |       11611      6.22%     69.06% |       11550      6.19%     75.25% |       11489      6.15%     81.40% |       11412      6.11%     87.52% |       11708      6.27%     93.79% |       11596      6.21%    100.00% (Unspecified)
board.cache_hierarchy.ruby_system.L1Cache_Controller.I.Ifetch::total       186688                       (Unspecified)
board.cache_hierarchy.ruby_system.L1Cache_Controller.I.Store |        3842      7.11%      7.11% |        3314      6.13%     13.25% |        2041      3.78%     17.02% |        3484      6.45%     23.47% |        3506      6.49%     29.96% |        3420      6.33%     36.29% |        3435      6.36%     42.65% |        3478      6.44%     49.09% |        3499      6.48%     55.57% |        3450      6.39%     61.95% |        3576      6.62%     68.57% |        3418      6.33%     74.90% |        3321      6.15%     81.05% |        3348      6.20%     87.24% |        3411      6.31%     93.56% |        3480      6.44%    100.00% (Unspecified)
board.cache_hierarchy.ruby_system.L1Cache_Controller.I.Store::total        54023                       (Unspecified)
board.cache_hierarchy.ruby_system.L1Cache_Controller.I.L1_Replacement |       12280      6.72%      6.72% |       11912      6.52%     13.24% |       13205      7.22%     20.46% |       11339      6.20%     26.66% |       11757      6.43%     33.10% |       11969      6.55%     39.65% |       10834      5.93%     45.57% |       11620      6.36%     51.93% |       11859      6.49%     58.42% |       10898      5.96%     64.38% |       10886      5.96%     70.34% |       10699      5.85%     76.19% |       10571      5.78%     81.97% |       11084      6.06%     88.04% |       10912      5.97%     94.01% |       10952      5.99%    100.00% (Unspecified)
board.cache_hierarchy.ruby_system.L1Cache_Controller.I.L1_Replacement::total       182777                       (Unspecified)
board.cache_hierarchy.ruby_system.L1Cache_Controller.S.Load |     4958459      6.71%      6.71% |     4891466      6.62%     13.33% |      184127      0.25%     13.57% |     4812034      6.51%     20.08% |     4890989      6.62%     26.70% |     4941948      6.69%     33.39% |     4877150      6.60%     39.99% |     4952212      6.70%     46.69% |     4986726      6.75%     53.43% |     4862937      6.58%     60.01% |     4738928      6.41%     66.42% |     4921453      6.66%     73.08% |     4932523      6.67%     79.75% |     5042292      6.82%     86.57% |     4962559      6.71%     93.29% |     4961423      6.71%    100.00% (Unspecified)
board.cache_hierarchy.ruby_system.L1Cache_Controller.S.Load::total     73917226                       (Unspecified)
board.cache_hierarchy.ruby_system.L1Cache_Controller.S.Ifetch |    60347402      5.90%      5.90% |    59328995      5.80%     11.70% |   126457901     12.36%     24.07% |    58689119      5.74%     29.81% |    60346460      5.90%     35.71% |    60269358      5.89%     41.60% |    59410660      5.81%     47.41% |    60008377      5.87%     53.28% |    60436647      5.91%     59.19% |    59210977      5.79%     64.97% |    57935514      5.66%     70.64% |    59626415      5.83%     76.47% |    59659666      5.83%     82.30% |    60966642      5.96%     88.26% |    60058984      5.87%     94.14% |    59959505      5.86%    100.00% (Unspecified)
board.cache_hierarchy.ruby_system.L1Cache_Controller.S.Ifetch::total   1022712622                       (Unspecified)
board.cache_hierarchy.ruby_system.L1Cache_Controller.S.Store |        2822     10.33%     10.33% |        2076      7.60%     17.92% |         671      2.46%     20.38% |        1308      4.79%     25.17% |        1519      5.56%     30.73% |        1703      6.23%     36.96% |        1801      6.59%     43.55% |        1406      5.15%     48.70% |        1688      6.18%     54.87% |        1975      7.23%     62.10% |        1258      4.60%     66.70% |        1462      5.35%     72.05% |        1987      7.27%     79.33% |        2140      7.83%     87.16% |        1363      4.99%     92.15% |        2146      7.85%    100.00% (Unspecified)
board.cache_hierarchy.ruby_system.L1Cache_Controller.S.Store::total        27325                       (Unspecified)
board.cache_hierarchy.ruby_system.L1Cache_Controller.S.Inv |       23685      6.18%      6.18% |       23547      6.15%     12.33% |       21003      5.48%     17.81% |       23517      6.14%     23.95% |       23558      6.15%     30.09% |       23878      6.23%     36.32% |       23133      6.04%     42.36% |       24333      6.35%     48.71% |       25901      6.76%     55.47% |       23738      6.20%     61.67% |       24449      6.38%     68.05% |       24682      6.44%     74.49% |       23835      6.22%     80.71% |       24443      6.38%     87.09% |       25336      6.61%     93.70% |       24139      6.30%    100.00% (Unspecified)
board.cache_hierarchy.ruby_system.L1Cache_Controller.S.Inv::total       383177                       (Unspecified)
board.cache_hierarchy.ruby_system.L1Cache_Controller.S.L1_Replacement |      540361      6.67%      6.67% |      529530      6.54%     13.21% |      136682      1.69%     14.90% |      523118      6.46%     21.35% |      527453      6.51%     27.87% |      536272      6.62%     34.49% |      527617      6.51%     41.00% |      535539      6.61%     47.61% |      535837      6.62%     54.23% |      526170      6.50%     60.72% |      515625      6.37%     67.09% |      528324      6.52%     73.61% |      525989      6.49%     80.11% |      543840      6.71%     86.82% |      534566      6.60%     93.42% |      533040      6.58%    100.00% (Unspecified)
board.cache_hierarchy.ruby_system.L1Cache_Controller.S.L1_Replacement::total      8099963                       (Unspecified)
board.cache_hierarchy.ruby_system.L1Cache_Controller.E.Load |      352707      1.75%      1.75% |      338666      1.68%      3.43% |    14900682     73.89%     77.32% |      378091      1.87%     79.19% |      343476      1.70%     80.90% |      377138      1.87%     82.77% |      384008      1.90%     84.67% |      348661      1.73%     86.40% |      343033      1.70%     88.10% |      354213      1.76%     89.86% |      364507      1.81%     91.66% |      314986      1.56%     93.23% |      339460      1.68%     94.91% |      350148      1.74%     96.65% |      330858      1.64%     98.29% |      345642      1.71%    100.00% (Unspecified)
board.cache_hierarchy.ruby_system.L1Cache_Controller.E.Load::total     20166276                       (Unspecified)
board.cache_hierarchy.ruby_system.L1Cache_Controller.E.Store |       11645      5.24%      5.24% |       11162      5.02%     10.26% |       54869     24.69%     34.95% |       10659      4.80%     39.75% |       11323      5.09%     44.84% |       11734      5.28%     50.12% |       11157      5.02%     55.14% |       11028      4.96%     60.10% |       11648      5.24%     65.34% |       10485      4.72%     70.06% |       10851      4.88%     74.94% |       11598      5.22%     80.16% |       11002      4.95%     85.11% |       11553      5.20%     90.31% |       10956      4.93%     95.24% |       10581      4.76%    100.00% (Unspecified)
board.cache_hierarchy.ruby_system.L1Cache_Controller.E.Store::total       222251                       (Unspecified)
board.cache_hierarchy.ruby_system.L1Cache_Controller.E.Inv |        4008      6.64%      6.64% |        3883      6.43%     13.07% |        5424      8.99%     22.06% |        3940      6.53%     28.59% |        4152      6.88%     35.47% |        4250      7.04%     42.51% |        3860      6.40%     48.91% |        3895      6.45%     55.36% |        3771      6.25%     61.61% |        3493      5.79%     67.39% |        3627      6.01%     73.40% |        3250      5.38%     78.79% |        3215      5.33%     84.12% |        3110      5.15%     89.27% |        3178      5.27%     94.53% |        3299      5.47%    100.00% (Unspecified)
board.cache_hierarchy.ruby_system.L1Cache_Controller.E.Inv::total        60355                       (Unspecified)
board.cache_hierarchy.ruby_system.L1Cache_Controller.E.L1_Replacement |       12536      3.19%      3.19% |       11721      2.98%      6.17% |      209280     53.21%     59.37% |       12360      3.14%     62.52% |       11174      2.84%     65.36% |       13044      3.32%     68.67% |       11804      3.00%     71.67% |       12770      3.25%     74.92% |       12459      3.17%     78.09% |       13130      3.34%     81.43% |       11634      2.96%     84.38% |       11716      2.98%     87.36% |       12096      3.08%     90.44% |       12314      3.13%     93.57% |       11933      3.03%     96.60% |       13366      3.40%    100.00% (Unspecified)
board.cache_hierarchy.ruby_system.L1Cache_Controller.E.L1_Replacement::total       393337                       (Unspecified)
board.cache_hierarchy.ruby_system.L1Cache_Controller.E.Fwd_GETX |          43      7.58%      7.58% |          46      8.11%     15.70% |          58     10.23%     25.93% |          29      5.11%     31.04% |          33      5.82%     36.86% |          60     10.58%     47.44% |          24      4.23%     51.68% |          29      5.11%     56.79% |          47      8.29%     65.08% |          28      4.94%     70.02% |          31      5.47%     75.49% |          28      4.94%     80.42% |          34      6.00%     86.42% |          32      5.64%     92.06% |          23      4.06%     96.12% |          22      3.88%    100.00% (Unspecified)
board.cache_hierarchy.ruby_system.L1Cache_Controller.E.Fwd_GETX::total          567                       (Unspecified)
board.cache_hierarchy.ruby_system.L1Cache_Controller.E.Fwd_GETS |        2434      6.11%      6.11% |        2529      6.35%     12.45% |        1152      2.89%     15.34% |        3101      7.78%     23.13% |        2667      6.69%     29.82% |        2768      6.95%     36.76% |        2079      5.22%     41.98% |        2599      6.52%     48.50% |        2771      6.95%     55.46% |        2295      5.76%     61.22% |        3083      7.74%     68.95% |        2340      5.87%     74.82% |        2786      6.99%     81.81% |        2436      6.11%     87.93% |        2444      6.13%     94.06% |        2367      5.94%    100.00% (Unspecified)
board.cache_hierarchy.ruby_system.L1Cache_Controller.E.Fwd_GETS::total        39851                       (Unspecified)
board.cache_hierarchy.ruby_system.L1Cache_Controller.M.Load |     2310422      6.18%      6.18% |     2237694      5.98%     12.16% |     3422278      9.15%     21.31% |     2201422      5.89%     27.19% |     2485822      6.65%     33.84% |     2294105      6.13%     39.97% |     2210818      5.91%     45.88% |     2246711      6.01%     51.89% |     2290694      6.12%     58.01% |     2230697      5.96%     63.98% |     2184955      5.84%     69.82% |     2271974      6.07%     75.89% |     2232649      5.97%     81.86% |     2288837      6.12%     87.98% |     2261817      6.05%     94.03% |     2233229      5.97%    100.00% (Unspecified)
board.cache_hierarchy.ruby_system.L1Cache_Controller.M.Load::total     37404124                       (Unspecified)
board.cache_hierarchy.ruby_system.L1Cache_Controller.M.Store |     2879036      5.72%      5.72% |     2792366      5.55%     11.27% |     7891704     15.69%     26.96% |     2767596      5.50%     32.47% |     2979007      5.92%     38.39% |     2859183      5.68%     44.07% |     2790278      5.55%     49.62% |     2820901      5.61%     55.23% |     2861137      5.69%     60.92% |     2788909      5.54%     66.46% |     2730336      5.43%     71.89% |     2813053      5.59%     77.48% |     2807481      5.58%     83.06% |     2876748      5.72%     88.78% |     2823948      5.61%     94.40% |     2819336      5.60%    100.00% (Unspecified)
board.cache_hierarchy.ruby_system.L1Cache_Controller.M.Store::total     50301019                       (Unspecified)
board.cache_hierarchy.ruby_system.L1Cache_Controller.M.Inv |        7057      7.71%      7.71% |        6237      6.82%     14.53% |        5613      6.14%     20.67% |        5926      6.48%     27.14% |        6334      6.92%     34.07% |        5871      6.42%     40.49% |        5893      6.44%     46.93% |        5726      6.26%     53.19% |        5924      6.48%     59.66% |        5561      6.08%     65.74% |        5680      6.21%     71.95% |        5097      5.57%     77.52% |        4992      5.46%     82.98% |        5009      5.48%     88.45% |        5291      5.78%     94.24% |        5273      5.76%    100.00% (Unspecified)
board.cache_hierarchy.ruby_system.L1Cache_Controller.M.Inv::total        91484                       (Unspecified)
board.cache_hierarchy.ruby_system.L1Cache_Controller.M.L1_Replacement |       28572      4.22%      4.22% |       27879      4.12%      8.35% |      247686     36.62%     44.97% |       27453      4.06%     49.03% |       28285      4.18%     53.21% |       29602      4.38%     57.59% |       27687      4.09%     61.68% |       28698      4.24%     65.93% |       29398      4.35%     70.27% |       28389      4.20%     74.47% |       27555      4.07%     78.55% |       29406      4.35%     82.89% |       28509      4.22%     87.11% |       29889      4.42%     91.53% |       28694      4.24%     95.77% |       28589      4.23%    100.00% (Unspecified)
board.cache_hierarchy.ruby_system.L1Cache_Controller.M.L1_Replacement::total       676291                       (Unspecified)
board.cache_hierarchy.ruby_system.L1Cache_Controller.M.Fwd_GETX |        1412      6.74%      6.74% |        1435      6.85%     13.59% |         304      1.45%     15.04% |        1577      7.53%     22.57% |        1609      7.68%     30.25% |        1295      6.18%     36.43% |        1367      6.52%     42.95% |        1234      5.89%     48.84% |        1419      6.77%     55.62% |        1249      5.96%     61.58% |        1133      5.41%     66.98% |        1430      6.83%     73.81% |        1514      7.23%     81.04% |        1436      6.85%     87.89% |        1132      5.40%     93.29% |        1405      6.71%    100.00% (Unspecified)
board.cache_hierarchy.ruby_system.L1Cache_Controller.M.Fwd_GETX::total        20951                       (Unspecified)
board.cache_hierarchy.ruby_system.L1Cache_Controller.M.Fwd_GETS |        3026      9.37%      9.37% |        2126      6.59%     15.96% |        1086      3.36%     19.32% |        1632      5.06%     24.38% |        1601      4.96%     29.34% |        2102      6.51%     35.85% |        2193      6.79%     42.64% |        1776      5.50%     48.15% |        2043      6.33%     54.47% |        1983      6.14%     60.62% |        1592      4.93%     65.55% |        1870      5.79%     71.34% |        2263      7.01%     78.35% |        2438      7.55%     85.91% |        2054      6.36%     92.27% |        2496      7.73%    100.00% (Unspecified)
board.cache_hierarchy.ruby_system.L1Cache_Controller.M.Fwd_GETS::total        32281                       (Unspecified)
board.cache_hierarchy.ruby_system.L1Cache_Controller.IS.Inv |           8      3.43%      3.43% |          24     10.30%     13.73% |          61     26.18%     39.91% |          48     20.60%     60.52% |          54     23.18%     83.69% |           4      1.72%     85.41% |           4      1.72%     87.12% |           3      1.29%     88.41% |           5      2.15%     90.56% |           3      1.29%     91.85% |           4      1.72%     93.56% |           1      0.43%     93.99% |           4      1.72%     95.71% |           4      1.72%     97.42% |           2      0.86%     98.28% |           4      1.72%    100.00% (Unspecified)
board.cache_hierarchy.ruby_system.L1Cache_Controller.IS.Inv::total          233                       (Unspecified)
board.cache_hierarchy.ruby_system.L1Cache_Controller.IS.Data_Exclusive |       30765      4.29%      4.29% |       29350      4.09%      8.39% |      270826     37.78%     46.17% |       30172      4.21%     50.38% |       29378      4.10%     54.48% |       31870      4.45%     58.92% |       28932      4.04%     62.96% |       30329      4.23%     67.19% |       30705      4.28%     71.47% |       29445      4.11%     75.58% |       29246      4.08%     79.66% |       28951      4.04%     83.70% |       29149      4.07%     87.77% |       29464      4.11%     91.88% |       28557      3.98%     95.86% |       29661      4.14%    100.00% (Unspecified)
board.cache_hierarchy.ruby_system.L1Cache_Controller.IS.Data_Exclusive::total       716800                       (Unspecified)
board.cache_hierarchy.ruby_system.L1Cache_Controller.IS.DataS_fromL1 |        4885      6.77%      6.77% |        5368      7.44%     14.21% |        1686      2.34%     16.55% |        5320      7.38%     23.93% |        5169      7.17%     31.09% |        4924      6.83%     37.92% |        3942      5.46%     43.38% |        4610      6.39%     49.77% |        5161      7.15%     56.93% |        4078      5.65%     62.58% |        4367      6.05%     68.64% |        4529      6.28%     74.91% |        4322      5.99%     80.91% |        4429      6.14%     87.05% |        5304      7.35%     94.40% |        4040      5.60%    100.00% (Unspecified)
board.cache_hierarchy.ruby_system.L1Cache_Controller.IS.DataS_fromL1::total        72134                       (Unspecified)
board.cache_hierarchy.ruby_system.L1Cache_Controller.IS.Data_all_Acks |      557228      6.66%      6.66% |      545492      6.51%     13.17% |      154950      1.85%     15.02% |      538613      6.43%     21.45% |      543509      6.49%     27.94% |      552424      6.60%     34.54% |      544703      6.51%     41.05% |      552656      6.60%     47.65% |      553842      6.61%     54.26% |      543886      6.50%     60.76% |      532664      6.36%     67.12% |      546098      6.52%     73.64% |      542816      6.48%     80.13% |      561493      6.71%     86.83% |      551833      6.59%     93.42% |      550803      6.58%    100.00% (Unspecified)
board.cache_hierarchy.ruby_system.L1Cache_Controller.IS.Data_all_Acks::total      8373010                       (Unspecified)
board.cache_hierarchy.ruby_system.L1Cache_Controller.IM.Inv |           0      0.00%      0.00% |           1    100.00%    100.00% |           0      0.00%    100.00% |           0      0.00%    100.00% |           0      0.00%    100.00% |           0      0.00%    100.00% |           0      0.00%    100.00% |           0      0.00%    100.00% |           0      0.00%    100.00% |           0      0.00%    100.00% |           0      0.00%    100.00% |           0      0.00%    100.00% |           0      0.00%    100.00% |           0      0.00%    100.00% |           0      0.00%    100.00% |           0      0.00%    100.00% (Unspecified)
board.cache_hierarchy.ruby_system.L1Cache_Controller.IM.Inv::total            1                       (Unspecified)
board.cache_hierarchy.ruby_system.L1Cache_Controller.IM.Data |         518      8.84%      8.84% |         442      7.54%     16.38% |         127      2.17%     18.55% |         429      7.32%     25.87% |         563      9.61%     35.47% |         212      3.62%     39.09% |         417      7.11%     46.20% |         148      2.53%     48.73% |         408      6.96%     55.69% |         293      5.00%     60.69% |         114      1.95%     62.63% |         390      6.65%     69.29% |         482      8.22%     77.51% |         392      6.69%     84.20% |         462      7.88%     92.08% |         464      7.92%    100.00% (Unspecified)
board.cache_hierarchy.ruby_system.L1Cache_Controller.IM.Data::total         5861                       (Unspecified)
board.cache_hierarchy.ruby_system.L1Cache_Controller.IM.Data_all_Acks |       25202      4.44%      4.44% |       24027      4.24%      8.68% |      199488     35.18%     43.87% |       24313      4.29%     48.16% |       24497      4.32%     52.48% |       25275      4.46%     56.93% |       23807      4.20%     61.13% |       24882      4.39%     65.52% |       25085      4.42%     69.95% |       24468      4.32%     74.26% |       23782      4.19%     78.46% |       24413      4.31%     82.76% |       23870      4.21%     86.97% |       24751      4.37%     91.34% |       24473      4.32%     95.65% |       24645      4.35%    100.00% (Unspecified)
board.cache_hierarchy.ruby_system.L1Cache_Controller.IM.Data_all_Acks::total       566978                       (Unspecified)
board.cache_hierarchy.ruby_system.L1Cache_Controller.SM.Inv |          11      2.62%      2.62% |          26      6.19%      8.81% |           5      1.19%     10.00% |          31      7.38%     17.38% |          35      8.33%     25.71% |          32      7.62%     33.33% |          30      7.14%     40.48% |          19      4.52%     45.00% |          26      6.19%     51.19% |          17      4.05%     55.24% |          21      5.00%     60.24% |          33      7.86%     68.10% |          26      6.19%     74.29% |          33      7.86%     82.14% |          45     10.71%     92.86% |          30      7.14%    100.00% (Unspecified)
board.cache_hierarchy.ruby_system.L1Cache_Controller.SM.Inv::total          420                       (Unspecified)
board.cache_hierarchy.ruby_system.L1Cache_Controller.SM.Ack |       11445     22.92%     22.92% |        3126      6.26%     29.18% |        2046      4.10%     33.28% |        2156      4.32%     37.59% |        2662      5.33%     42.92% |        2785      5.58%     48.50% |        2467      4.94%     53.44% |        2169      4.34%     57.79% |        2867      5.74%     63.53% |        2720      5.45%     68.97% |        1977      3.96%     72.93% |        2319      4.64%     77.58% |        2733      5.47%     83.05% |        3112      6.23%     89.28% |        2274      4.55%     93.84% |        3078      6.16%    100.00% (Unspecified)
board.cache_hierarchy.ruby_system.L1Cache_Controller.SM.Ack::total        49936                       (Unspecified)
board.cache_hierarchy.ruby_system.L1Cache_Controller.SM.Ack_all |        3329     10.16%     10.16% |        2492      7.61%     17.77% |         793      2.42%     20.19% |        1706      5.21%     25.39% |        2047      6.25%     31.64% |        1883      5.75%     37.39% |        2188      6.68%     44.06% |        1535      4.68%     48.75% |        2070      6.32%     55.07% |        2251      6.87%     61.94% |        1351      4.12%     66.06% |        1819      5.55%     71.61% |        2443      7.46%     79.07% |        2499      7.63%     86.69% |        1780      5.43%     92.13% |        2580      7.87%    100.00% (Unspecified)
board.cache_hierarchy.ruby_system.L1Cache_Controller.SM.Ack_all::total        32766                       (Unspecified)
board.cache_hierarchy.ruby_system.L1Cache_Controller.IS_I.Data_Exclusive |           1     50.00%     50.00% |           0      0.00%     50.00% |           0      0.00%     50.00% |           0      0.00%     50.00% |           0      0.00%     50.00% |           0      0.00%     50.00% |           0      0.00%     50.00% |           0      0.00%     50.00% |           0      0.00%     50.00% |           0      0.00%     50.00% |           0      0.00%     50.00% |           0      0.00%     50.00% |           0      0.00%     50.00% |           0      0.00%     50.00% |           0      0.00%     50.00% |           1     50.00%    100.00% (Unspecified)
board.cache_hierarchy.ruby_system.L1Cache_Controller.IS_I.Data_Exclusive::total            2                       (Unspecified)
board.cache_hierarchy.ruby_system.L1Cache_Controller.IS_I.Data_all_Acks |           7      3.03%      3.03% |          24     10.39%     13.42% |          61     26.41%     39.83% |          48     20.78%     60.61% |          54     23.38%     83.98% |           4      1.73%     85.71% |           4      1.73%     87.45% |           3      1.30%     88.74% |           5      2.16%     90.91% |           3      1.30%     92.21% |           4      1.73%     93.94% |           1      0.43%     94.37% |           4      1.73%     96.10% |           4      1.73%     97.84% |           2      0.87%     98.70% |           3      1.30%    100.00% (Unspecified)
board.cache_hierarchy.ruby_system.L1Cache_Controller.IS_I.Data_all_Acks::total          231                       (Unspecified)
board.cache_hierarchy.ruby_system.L1Cache_Controller.M_I.Inv |           0      0.00%      0.00% |           0      0.00%      0.00% |           0      0.00%      0.00% |           1      4.17%      4.17% |           1      4.17%      8.33% |           1      4.17%     12.50% |           1      4.17%     16.67% |           0      0.00%     16.67% |           4     16.67%     33.33% |           1      4.17%     37.50% |           3     12.50%     50.00% |           1      4.17%     54.17% |           2      8.33%     62.50% |           4     16.67%     79.17% |           5     20.83%    100.00% |           0      0.00%    100.00% (Unspecified)
board.cache_hierarchy.ruby_system.L1Cache_Controller.M_I.Inv::total           24                       (Unspecified)
board.cache_hierarchy.ruby_system.L1Cache_Controller.M_I.Fwd_GETS |           0      0.00%      0.00% |           0      0.00%      0.00% |           0      0.00%      0.00% |           0      0.00%      0.00% |           0      0.00%      0.00% |           0      0.00%      0.00% |           0      0.00%      0.00% |           0      0.00%      0.00% |           1     50.00%     50.00% |           0      0.00%     50.00% |           0      0.00%     50.00% |           0      0.00%     50.00% |           0      0.00%     50.00% |           0      0.00%     50.00% |           0      0.00%     50.00% |           1     50.00%    100.00% (Unspecified)
board.cache_hierarchy.ruby_system.L1Cache_Controller.M_I.Fwd_GETS::total            2                       (Unspecified)
board.cache_hierarchy.ruby_system.L1Cache_Controller.M_I.WB_Ack |       41108      3.84%      3.84% |       39600      3.70%      7.55% |      456966     42.72%     50.27% |       39812      3.72%     53.99% |       39458      3.69%     57.68% |       42645      3.99%     61.67% |       39490      3.69%     65.36% |       41468      3.88%     69.24% |       41852      3.91%     73.15% |       41518      3.88%     77.03% |       39186      3.66%     80.69% |       41121      3.84%     84.54% |       40603      3.80%     88.33% |       42199      3.95%     92.28% |       40622      3.80%     96.08% |       41954      3.92%    100.00% (Unspecified)
board.cache_hierarchy.ruby_system.L1Cache_Controller.M_I.WB_Ack::total      1069602                       (Unspecified)
board.cache_hierarchy.ruby_system.L1Cache_Controller.SINK_WB_ACK.WB_Ack |           0      0.00%      0.00% |           0      0.00%      0.00% |           0      0.00%      0.00% |           1      3.85%      3.85% |           1      3.85%      7.69% |           1      3.85%     11.54% |           1      3.85%     15.38% |           0      0.00%     15.38% |           5     19.23%     34.62% |           1      3.85%     38.46% |           3     11.54%     50.00% |           1      3.85%     53.85% |           2      7.69%     61.54% |           4     15.38%     76.92% |           5     19.23%     96.15% |           1      3.85%    100.00% (Unspecified)
board.cache_hierarchy.ruby_system.L1Cache_Controller.SINK_WB_ACK.WB_Ack::total           26                       (Unspecified)
board.cache_hierarchy.ruby_system.L2Cache_Controller.L1_GET_INSTR |      723385     54.65%     54.65% |      600311     45.35%    100.00% (Unspecified)
board.cache_hierarchy.ruby_system.L2Cache_Controller.L1_GET_INSTR::total      1323696                       (Unspecified)
board.cache_hierarchy.ruby_system.L2Cache_Controller.L1_GETS |     3841506     48.96%     48.96% |     4005062     51.04%    100.00% (Unspecified)
board.cache_hierarchy.ruby_system.L2Cache_Controller.L1_GETS::total      7846568                       (Unspecified)
board.cache_hierarchy.ruby_system.L2Cache_Controller.L1_GETX |      280659     48.70%     48.70% |      295595     51.30%    100.00% (Unspecified)
board.cache_hierarchy.ruby_system.L2Cache_Controller.L1_GETX::total       576254                       (Unspecified)
board.cache_hierarchy.ruby_system.L2Cache_Controller.L1_UPGRADE |       15077     54.54%     54.54% |       12568     45.46%    100.00% (Unspecified)
board.cache_hierarchy.ruby_system.L2Cache_Controller.L1_UPGRADE::total        27645                       (Unspecified)
board.cache_hierarchy.ruby_system.L2Cache_Controller.L1_PUTX |      535961     50.11%     50.11% |      533645     49.89%    100.00% (Unspecified)
board.cache_hierarchy.ruby_system.L2Cache_Controller.L1_PUTX::total      1069606                       (Unspecified)
board.cache_hierarchy.ruby_system.L2Cache_Controller.L1_PUTX_old |          33     73.33%     73.33% |          12     26.67%    100.00% (Unspecified)
board.cache_hierarchy.ruby_system.L2Cache_Controller.L1_PUTX_old::total           45                       (Unspecified)
board.cache_hierarchy.ruby_system.L2Cache_Controller.L2_Replacement |      132571     49.63%     49.63% |      134563     50.37%    100.00% (Unspecified)
board.cache_hierarchy.ruby_system.L2Cache_Controller.L2_Replacement::total       267134                       (Unspecified)
board.cache_hierarchy.ruby_system.L2Cache_Controller.L2_Replacement_clean |      199035     49.25%     49.25% |      205095     50.75%    100.00% (Unspecified)
board.cache_hierarchy.ruby_system.L2Cache_Controller.L2_Replacement_clean::total       404130                       (Unspecified)
board.cache_hierarchy.ruby_system.L2Cache_Controller.Mem_Data |      335703     49.41%     49.41% |      343753     50.59%    100.00% (Unspecified)
board.cache_hierarchy.ruby_system.L2Cache_Controller.Mem_Data::total       679456                       (Unspecified)
board.cache_hierarchy.ruby_system.L2Cache_Controller.Mem_Ack |      331607     49.40%     49.40% |      339657     50.60%    100.00% (Unspecified)
board.cache_hierarchy.ruby_system.L2Cache_Controller.Mem_Ack::total       671264                       (Unspecified)
board.cache_hierarchy.ruby_system.L2Cache_Controller.WB_Data |       51090     41.27%     41.27% |       72694     58.73%    100.00% (Unspecified)
board.cache_hierarchy.ruby_system.L2Cache_Controller.WB_Data::total       123784                       (Unspecified)
board.cache_hierarchy.ruby_system.L2Cache_Controller.WB_Data_clean |       22250     55.82%     55.82% |       17608     44.18%    100.00% (Unspecified)
board.cache_hierarchy.ruby_system.L2Cache_Controller.WB_Data_clean::total        39858                       (Unspecified)
board.cache_hierarchy.ruby_system.L2Cache_Controller.Ack |      473187     52.17%     52.17% |      433764     47.83%    100.00% (Unspecified)
board.cache_hierarchy.ruby_system.L2Cache_Controller.Ack::total       906951                       (Unspecified)
board.cache_hierarchy.ruby_system.L2Cache_Controller.Ack_all |       91811     54.60%     54.60% |       76351     45.40%    100.00% (Unspecified)
board.cache_hierarchy.ruby_system.L2Cache_Controller.Ack_all::total       168162                       (Unspecified)
board.cache_hierarchy.ruby_system.L2Cache_Controller.Unblock |       39518     54.78%     54.78% |       32616     45.22%    100.00% (Unspecified)
board.cache_hierarchy.ruby_system.L2Cache_Controller.Unblock::total        72134                       (Unspecified)
board.cache_hierarchy.ruby_system.L2Cache_Controller.Exclusive_Unblock |      653995     49.68%     49.68% |      662551     50.32%    100.00% (Unspecified)
board.cache_hierarchy.ruby_system.L2Cache_Controller.Exclusive_Unblock::total      1316546                       (Unspecified)
board.cache_hierarchy.ruby_system.L2Cache_Controller.MEM_Inv |           2    100.00%    100.00% |           0      0.00%    100.00% (Unspecified)
board.cache_hierarchy.ruby_system.L2Cache_Controller.MEM_Inv::total            2                       (Unspecified)
board.cache_hierarchy.ruby_system.L2Cache_Controller.NP.L1_GET_INSTR |       28817     51.29%     51.29% |       27372     48.71%    100.00% (Unspecified)
board.cache_hierarchy.ruby_system.L2Cache_Controller.NP.L1_GET_INSTR::total        56189                       (Unspecified)
board.cache_hierarchy.ruby_system.L2Cache_Controller.NP.L1_GETS |      187951     51.02%     51.02% |      180456     48.98%    100.00% (Unspecified)
board.cache_hierarchy.ruby_system.L2Cache_Controller.NP.L1_GETS::total       368407                       (Unspecified)
board.cache_hierarchy.ruby_system.L2Cache_Controller.NP.L1_GETX |      118935     46.67%     46.67% |      135925     53.33%    100.00% (Unspecified)
board.cache_hierarchy.ruby_system.L2Cache_Controller.NP.L1_GETX::total       254860                       (Unspecified)
board.cache_hierarchy.ruby_system.L2Cache_Controller.NP.L1_PUTX_old |          16     76.19%     76.19% |           5     23.81%    100.00% (Unspecified)
board.cache_hierarchy.ruby_system.L2Cache_Controller.NP.L1_PUTX_old::total           21                       (Unspecified)
board.cache_hierarchy.ruby_system.L2Cache_Controller.SS.L1_GET_INSTR |      671154     54.98%     54.98% |      549486     45.02%    100.00% (Unspecified)
board.cache_hierarchy.ruby_system.L2Cache_Controller.SS.L1_GET_INSTR::total      1220640                       (Unspecified)
board.cache_hierarchy.ruby_system.L2Cache_Controller.SS.L1_GETS |     3415169     48.76%     48.76% |     3589471     51.24%    100.00% (Unspecified)
board.cache_hierarchy.ruby_system.L2Cache_Controller.SS.L1_GETS::total      7004640                       (Unspecified)
board.cache_hierarchy.ruby_system.L2Cache_Controller.SS.L1_GETX |        2886     49.24%     49.24% |        2975     50.76%    100.00% (Unspecified)
board.cache_hierarchy.ruby_system.L2Cache_Controller.SS.L1_GETX::total         5861                       (Unspecified)
board.cache_hierarchy.ruby_system.L2Cache_Controller.SS.L1_UPGRADE |       14541     54.05%     54.05% |       12364     45.95%    100.00% (Unspecified)
board.cache_hierarchy.ruby_system.L2Cache_Controller.SS.L1_UPGRADE::total        26905                       (Unspecified)
board.cache_hierarchy.ruby_system.L2Cache_Controller.SS.L1_PUTX |           2    100.00%    100.00% |           0      0.00%    100.00% (Unspecified)
board.cache_hierarchy.ruby_system.L2Cache_Controller.SS.L1_PUTX::total            2                       (Unspecified)
board.cache_hierarchy.ruby_system.L2Cache_Controller.SS.L2_Replacement |        1789     65.36%     65.36% |         948     34.64%    100.00% (Unspecified)
board.cache_hierarchy.ruby_system.L2Cache_Controller.SS.L2_Replacement::total         2737                       (Unspecified)
board.cache_hierarchy.ruby_system.L2Cache_Controller.SS.L2_Replacement_clean |       55564     52.88%     52.88% |       49506     47.12%    100.00% (Unspecified)
board.cache_hierarchy.ruby_system.L2Cache_Controller.SS.L2_Replacement_clean::total       105070                       (Unspecified)
board.cache_hierarchy.ruby_system.L2Cache_Controller.M.L1_GETS |      179711     49.49%     49.49% |      183448     50.51%    100.00% (Unspecified)
board.cache_hierarchy.ruby_system.L2Cache_Controller.M.L1_GETS::total       363159                       (Unspecified)
board.cache_hierarchy.ruby_system.L2Cache_Controller.M.L1_GETX |      148115     50.97%     50.97% |      142485     49.03%    100.00% (Unspecified)
board.cache_hierarchy.ruby_system.L2Cache_Controller.M.L1_GETX::total       290600                       (Unspecified)
board.cache_hierarchy.ruby_system.L2Cache_Controller.M.L2_Replacement |      125459     49.46%     49.46% |      128220     50.54%    100.00% (Unspecified)
board.cache_hierarchy.ruby_system.L2Cache_Controller.M.L2_Replacement::total       253679                       (Unspecified)
board.cache_hierarchy.ruby_system.L2Cache_Controller.M.L2_Replacement_clean |       80515     50.99%     50.99% |       77400     49.01%    100.00% (Unspecified)
board.cache_hierarchy.ruby_system.L2Cache_Controller.M.L2_Replacement_clean::total       157915                       (Unspecified)
board.cache_hierarchy.ruby_system.L2Cache_Controller.MT.L1_GETS |       39518     54.78%     54.78% |       32616     45.22%    100.00% (Unspecified)
board.cache_hierarchy.ruby_system.L2Cache_Controller.MT.L1_GETS::total        72134                       (Unspecified)
board.cache_hierarchy.ruby_system.L2Cache_Controller.MT.L1_GETX |        9545     44.36%     44.36% |       11973     55.64%    100.00% (Unspecified)
board.cache_hierarchy.ruby_system.L2Cache_Controller.MT.L1_GETX::total        21518                       (Unspecified)
board.cache_hierarchy.ruby_system.L2Cache_Controller.MT.L1_PUTX |      535957     50.11%     50.11% |      533645     49.89%    100.00% (Unspecified)
board.cache_hierarchy.ruby_system.L2Cache_Controller.MT.L1_PUTX::total      1069602                       (Unspecified)
board.cache_hierarchy.ruby_system.L2Cache_Controller.MT.L2_Replacement |        5323     49.66%     49.66% |        5395     50.34%    100.00% (Unspecified)
board.cache_hierarchy.ruby_system.L2Cache_Controller.MT.L2_Replacement::total        10718                       (Unspecified)
board.cache_hierarchy.ruby_system.L2Cache_Controller.MT.L2_Replacement_clean |       62956     44.60%     44.60% |       78188     55.40%    100.00% (Unspecified)
board.cache_hierarchy.ruby_system.L2Cache_Controller.MT.L2_Replacement_clean::total       141144                       (Unspecified)
board.cache_hierarchy.ruby_system.L2Cache_Controller.MT.MEM_Inv |           1    100.00%    100.00% |           0      0.00%    100.00% (Unspecified)
board.cache_hierarchy.ruby_system.L2Cache_Controller.MT.MEM_Inv::total            1                       (Unspecified)
board.cache_hierarchy.ruby_system.L2Cache_Controller.M_I.L1_GET_INSTR |         130     53.06%     53.06% |         115     46.94%    100.00% (Unspecified)
board.cache_hierarchy.ruby_system.L2Cache_Controller.M_I.L1_GET_INSTR::total          245                       (Unspecified)
board.cache_hierarchy.ruby_system.L2Cache_Controller.M_I.L1_GETS |         138     42.46%     42.46% |         187     57.54%    100.00% (Unspecified)
board.cache_hierarchy.ruby_system.L2Cache_Controller.M_I.L1_GETS::total          325                       (Unspecified)
board.cache_hierarchy.ruby_system.L2Cache_Controller.M_I.L1_GETX |          67     38.07%     38.07% |         109     61.93%    100.00% (Unspecified)
board.cache_hierarchy.ruby_system.L2Cache_Controller.M_I.L1_GETX::total          176                       (Unspecified)
board.cache_hierarchy.ruby_system.L2Cache_Controller.M_I.L1_PUTX_old |           1     33.33%     33.33% |           2     66.67%    100.00% (Unspecified)
board.cache_hierarchy.ruby_system.L2Cache_Controller.M_I.L1_PUTX_old::total            3                       (Unspecified)
board.cache_hierarchy.ruby_system.L2Cache_Controller.M_I.Mem_Ack |      331607     49.40%     49.40% |      339657     50.60%    100.00% (Unspecified)
board.cache_hierarchy.ruby_system.L2Cache_Controller.M_I.Mem_Ack::total       671264                       (Unspecified)
board.cache_hierarchy.ruby_system.L2Cache_Controller.MT_I.L1_GETS |           1    100.00%    100.00% |           0      0.00%    100.00% (Unspecified)
board.cache_hierarchy.ruby_system.L2Cache_Controller.MT_I.L1_GETS::total            1                       (Unspecified)
board.cache_hierarchy.ruby_system.L2Cache_Controller.MT_I.L1_PUTX_old |           2    100.00%    100.00% |           0      0.00%    100.00% (Unspecified)
board.cache_hierarchy.ruby_system.L2Cache_Controller.MT_I.L1_PUTX_old::total            2                       (Unspecified)
board.cache_hierarchy.ruby_system.L2Cache_Controller.MT_I.WB_Data |        4633     50.73%     50.73% |        4499     49.27%    100.00% (Unspecified)
board.cache_hierarchy.ruby_system.L2Cache_Controller.MT_I.WB_Data::total         9132                       (Unspecified)
board.cache_hierarchy.ruby_system.L2Cache_Controller.MT_I.WB_Data_clean |           1    100.00%    100.00% |           0      0.00%    100.00% (Unspecified)
board.cache_hierarchy.ruby_system.L2Cache_Controller.MT_I.WB_Data_clean::total            1                       (Unspecified)
board.cache_hierarchy.ruby_system.L2Cache_Controller.MT_I.Ack_all |         690     43.51%     43.51% |         896     56.49%    100.00% (Unspecified)
board.cache_hierarchy.ruby_system.L2Cache_Controller.MT_I.Ack_all::total         1586                       (Unspecified)
board.cache_hierarchy.ruby_system.L2Cache_Controller.MT_I.MEM_Inv |           1    100.00%    100.00% |           0      0.00%    100.00% (Unspecified)
board.cache_hierarchy.ruby_system.L2Cache_Controller.MT_I.MEM_Inv::total            1                       (Unspecified)
board.cache_hierarchy.ruby_system.L2Cache_Controller.MCT_I.L1_GETS |           1    100.00%    100.00% |           0      0.00%    100.00% (Unspecified)
board.cache_hierarchy.ruby_system.L2Cache_Controller.MCT_I.L1_GETS::total            1                       (Unspecified)
board.cache_hierarchy.ruby_system.L2Cache_Controller.MCT_I.L1_PUTX_old |          14     73.68%     73.68% |           5     26.32%    100.00% (Unspecified)
board.cache_hierarchy.ruby_system.L2Cache_Controller.MCT_I.L1_PUTX_old::total           19                       (Unspecified)
board.cache_hierarchy.ruby_system.L2Cache_Controller.MCT_I.WB_Data |       29184     35.43%     35.43% |       53187     64.57%    100.00% (Unspecified)
board.cache_hierarchy.ruby_system.L2Cache_Controller.MCT_I.WB_Data::total        82371                       (Unspecified)
board.cache_hierarchy.ruby_system.L2Cache_Controller.MCT_I.WB_Data_clean |           4    100.00%    100.00% |           0      0.00%    100.00% (Unspecified)
board.cache_hierarchy.ruby_system.L2Cache_Controller.MCT_I.WB_Data_clean::total            4                       (Unspecified)
board.cache_hierarchy.ruby_system.L2Cache_Controller.MCT_I.Ack_all |       33768     57.46%     57.46% |       25001     42.54%    100.00% (Unspecified)
board.cache_hierarchy.ruby_system.L2Cache_Controller.MCT_I.Ack_all::total        58769                       (Unspecified)
board.cache_hierarchy.ruby_system.L2Cache_Controller.I_I.L1_GET_INSTR |           2     40.00%     40.00% |           3     60.00%    100.00% (Unspecified)
board.cache_hierarchy.ruby_system.L2Cache_Controller.I_I.L1_GET_INSTR::total            5                       (Unspecified)
board.cache_hierarchy.ruby_system.L2Cache_Controller.I_I.L1_GETS |           1     33.33%     33.33% |           2     66.67%    100.00% (Unspecified)
board.cache_hierarchy.ruby_system.L2Cache_Controller.I_I.L1_GETS::total            3                       (Unspecified)
board.cache_hierarchy.ruby_system.L2Cache_Controller.I_I.Ack |      466326     51.93%     51.93% |      431661     48.07%    100.00% (Unspecified)
board.cache_hierarchy.ruby_system.L2Cache_Controller.I_I.Ack::total       897987                       (Unspecified)
board.cache_hierarchy.ruby_system.L2Cache_Controller.I_I.Ack_all |       55564     52.88%     52.88% |       49506     47.12%    100.00% (Unspecified)
board.cache_hierarchy.ruby_system.L2Cache_Controller.I_I.Ack_all::total       105070                       (Unspecified)
board.cache_hierarchy.ruby_system.L2Cache_Controller.S_I.L1_GETS |           1    100.00%    100.00% |           0      0.00%    100.00% (Unspecified)
board.cache_hierarchy.ruby_system.L2Cache_Controller.S_I.L1_GETS::total            1                       (Unspecified)
board.cache_hierarchy.ruby_system.L2Cache_Controller.S_I.L1_GETX |           1    100.00%    100.00% |           0      0.00%    100.00% (Unspecified)
board.cache_hierarchy.ruby_system.L2Cache_Controller.S_I.L1_GETX::total            1                       (Unspecified)
board.cache_hierarchy.ruby_system.L2Cache_Controller.S_I.Ack |        6861     76.54%     76.54% |        2103     23.46%    100.00% (Unspecified)
board.cache_hierarchy.ruby_system.L2Cache_Controller.S_I.Ack::total         8964                       (Unspecified)
board.cache_hierarchy.ruby_system.L2Cache_Controller.S_I.Ack_all |        1789     65.36%     65.36% |         948     34.64%    100.00% (Unspecified)
board.cache_hierarchy.ruby_system.L2Cache_Controller.S_I.Ack_all::total         2737                       (Unspecified)
board.cache_hierarchy.ruby_system.L2Cache_Controller.ISS.L1_GETS |        7689     52.08%     52.08% |        7075     47.92%    100.00% (Unspecified)
board.cache_hierarchy.ruby_system.L2Cache_Controller.ISS.L1_GETS::total        14764                       (Unspecified)
board.cache_hierarchy.ruby_system.L2Cache_Controller.ISS.L1_GETX |           4     14.81%     14.81% |          23     85.19%    100.00% (Unspecified)
board.cache_hierarchy.ruby_system.L2Cache_Controller.ISS.L1_GETX::total           27                       (Unspecified)
board.cache_hierarchy.ruby_system.L2Cache_Controller.ISS.Mem_Data |      180262     50.97%     50.97% |      173381     49.03%    100.00% (Unspecified)
board.cache_hierarchy.ruby_system.L2Cache_Controller.ISS.Mem_Data::total       353643                       (Unspecified)
board.cache_hierarchy.ruby_system.L2Cache_Controller.IS.L1_GET_INSTR |       23282     49.94%     49.94% |       23335     50.06%    100.00% (Unspecified)
board.cache_hierarchy.ruby_system.L2Cache_Controller.IS.L1_GET_INSTR::total        46617                       (Unspecified)
board.cache_hierarchy.ruby_system.L2Cache_Controller.IS.L1_GETS |        8023     51.34%     51.34% |        7604     48.66%    100.00% (Unspecified)
board.cache_hierarchy.ruby_system.L2Cache_Controller.IS.L1_GETS::total        15627                       (Unspecified)
board.cache_hierarchy.ruby_system.L2Cache_Controller.IS.L1_GETX |           3     37.50%     37.50% |           5     62.50%    100.00% (Unspecified)
board.cache_hierarchy.ruby_system.L2Cache_Controller.IS.L1_GETX::total            8                       (Unspecified)
[...]
board.processor.switch8.core.mmu.itb.wrAccesses     60520686                       # TLB accesses on write requests (Count)
board.processor.switch8.core.mmu.itb.rdMisses            0                       # TLB misses on read requests (Count)
board.processor.switch8.core.mmu.itb.wrMisses         2473                       # TLB misses on write requests (Count)
board.processor.switch8.core.mmu.itb.walker.power_state.pwrStateResidencyTicks::UNDEFINED 19737523125596                       # Cumulative time (in ticks) in various power states (Tick)
board.processor.switch8.core.power_state.numTransitions          366                       # Number of power state transitions (Count)
board.processor.switch8.core.power_state.ticksClkGated::samples          183                       # Distribution of time spent in the clock gated state (Tick)
board.processor.switch8.core.power_state.ticksClkGated::mean 686311559.131148                       # Distribution of time spent in the clock gated state (Tick)
board.processor.switch8.core.power_state.ticksClkGated::stdev 430642899.178243                       # Distribution of time spent in the clock gated state (Tick)
board.processor.switch8.core.power_state.ticksClkGated::1000-5e+10          183    100.00%    100.00% # Distribution of time spent in the clock gated state (Tick)
board.processor.switch8.core.power_state.ticksClkGated::min_value       544123                       # Distribution of time spent in the clock gated state (Tick)
board.processor.switch8.core.power_state.ticksClkGated::max_value    997264404                       # Distribution of time spent in the clock gated state (Tick)
board.processor.switch8.core.power_state.ticksClkGated::total          183                       # Distribution of time spent in the clock gated state (Tick)
board.processor.switch8.core.power_state.pwrStateResidencyTicks::ON  52049678830                       # Cumulative time (in ticks) in various power states (Tick)
board.processor.switch8.core.power_state.pwrStateResidencyTicks::CLK_GATED 125595015321                       # Cumulative time (in ticks) in various power states (Tick)
board.processor.switch8.core.power_state.pwrStateResidencyTicks::OFF 19559878431445                       # Cumulative time (in ticks) in various power states (Tick)
board.processor.switch8.core.thread_0.numInsts            0                       # Number of Instructions committed (Count)
board.processor.switch8.core.thread_0.numOps            0                       # Number of Ops committed (Count)
board.processor.switch8.core.thread_0.numMemRefs            0                       # Number of Memory References (Count)
board.processor.switch9.core.numCycles      532750342                       # Number of cpu cycles simulated (Cycle)
board.processor.switch9.core.numWorkItemsStarted            0                       # Number of work items this cpu started (Count)
board.processor.switch9.core.numWorkItemsCompleted            0                       # Number of work items this cpu completed (Count)
board.processor.switch9.core.exec_context.thread_0.numInsts     43829530                       # Number of instructions committed (Count)
board.processor.switch9.core.exec_context.thread_0.numOps     74588965                       # Number of ops (including micro ops) committed (Count)
board.processor.switch9.core.exec_context.thread_0.numIntAluAccesses     47898306                       # Number of integer alu accesses (Count)
board.processor.switch9.core.exec_context.thread_0.numFpAluAccesses     32053140                       # Number of float alu accesses (Count)
board.processor.switch9.core.exec_context.thread_0.numVecAluAccesses            0                       # Number of vector alu accesses (Count)
board.processor.switch9.core.exec_context.thread_0.numCallsReturns       188939                       # Number of times a function call or return occured (Count)
board.processor.switch9.core.exec_context.thread_0.numCondCtrlInsts      3810713                       # Number of instructions that are conditional controls (Count)
board.processor.switch9.core.exec_context.thread_0.numIntInsts     47898306                       # Number of integer instructions (Count)
board.processor.switch9.core.exec_context.thread_0.numFpInsts     32053140                       # Number of float instructions (Count)
board.processor.switch9.core.exec_context.thread_0.numVecInsts            0                       # Number of vector instructions (Count)
board.processor.switch9.core.exec_context.thread_0.numIntRegReads     65201155                       # Number of times the integer registers were read (Count)
board.processor.switch9.core.exec_context.thread_0.numIntRegWrites     34034453                       # Number of times the integer registers were written (Count)
board.processor.switch9.core.exec_context.thread_0.numFpRegReads     59423953                       # Number of times the floating registers were read (Count)
board.processor.switch9.core.exec_context.thread_0.numFpRegWrites     29563360                       # Number of times the floating registers were written (Count)
board.processor.switch9.core.exec_context.thread_0.numVecRegReads            0                       # Number of times the vector registers were read (Count)
board.processor.switch9.core.exec_context.thread_0.numVecRegWrites            0                       # Number of times the vector registers were written (Count)
board.processor.switch9.core.exec_context.thread_0.numVecPredRegReads            0                       # Number of times the predicate registers were read (Count)
board.processor.switch9.core.exec_context.thread_0.numVecPredRegWrites            0                       # Number of times the predicate registers were written (Count)
board.processor.switch9.core.exec_context.thread_0.numCCRegReads     28127810                       # Number of times the CC registers were read (Count)
board.processor.switch9.core.exec_context.thread_0.numCCRegWrites     22333884                       # Number of times the CC registers were written (Count)
board.processor.switch9.core.exec_context.thread_0.numMiscRegReads     18926679                       # Number of times the Misc registers were read (Count)
board.processor.switch9.core.exec_context.thread_0.numMiscRegWrites        11765                       # Number of times the Misc registers were written (Count)
board.processor.switch9.core.exec_context.thread_0.numMemRefs     10477334                       # Number of memory refs (Count)
board.processor.switch9.core.exec_context.thread_0.numLoadInsts      8389494                       # Number of load instructions (Count)
board.processor.switch9.core.exec_context.thread_0.numStoreInsts      2087840                       # Number of store instructions (Count)
board.processor.switch9.core.exec_context.thread_0.numIdleCycles 380629962.581189                       # Number of idle cycles (Cycle)
board.processor.switch9.core.exec_context.thread_0.numBusyCycles 152120379.418811                       # Number of busy cycles (Cycle)
board.processor.switch9.core.exec_context.thread_0.notIdleFraction     0.285538                       # Percentage of non-idle cycles (Ratio)
board.processor.switch9.core.exec_context.thread_0.idleFraction     0.714462                       # Percentage of idle cycles (Ratio)
board.processor.switch9.core.exec_context.thread_0.numBranches      4087516                       # Number of branches fetched (Count)
board.processor.switch9.core.exec_context.thread_0.statExecutedInstType::No_OpClass       545615      0.73%      0.73% # Class of executed instruction. (Count)
board.processor.switch9.core.exec_context.thread_0.statExecutedInstType::IntAlu     41281251     55.34%     56.08% # Class of executed instruction. (Count)
board.processor.switch9.core.exec_context.thread_0.statExecutedInstType::IntMult      1373894      1.84%     57.92% # Class of executed instruction. (Count)
board.processor.switch9.core.exec_context.thread_0.statExecutedInstType::IntDiv         8020      0.01%     57.93% # Class of executed instruction. (Count)
board.processor.switch9.core.exec_context.thread_0.statExecutedInstType::FloatAdd      3818527      5.12%     63.05% # Class of executed instruction. (Count)
board.processor.switch9.core.exec_context.thread_0.statExecutedInstType::FloatCmp            0      0.00%     63.05% # Class of executed instruction. (Count)
board.processor.switch9.core.exec_context.thread_0.statExecutedInstType::FloatCvt          864      0.00%     63.05% # Class of executed instruction. (Count)
board.processor.switch9.core.exec_context.thread_0.statExecutedInstType::FloatMult            0      0.00%     63.05% # Class of executed instruction. (Count)
board.processor.switch9.core.exec_context.thread_0.statExecutedInstType::FloatMultAcc            0      0.00%     63.05% # Class of executed instruction. (Count)
board.processor.switch9.core.exec_context.thread_0.statExecutedInstType::FloatDiv            0      0.00%     63.05% # Class of executed instruction. (Count)
board.processor.switch9.core.exec_context.thread_0.statExecutedInstType::FloatMisc            0      0.00%     63.05% # Class of executed instruction. (Count)
board.processor.switch9.core.exec_context.thread_0.statExecutedInstType::FloatSqrt            0      0.00%     63.05% # Class of executed instruction. (Count)
board.processor.switch9.core.exec_context.thread_0.statExecutedInstType::SimdAdd            0      0.00%     63.05% # Class of executed instruction. (Count)
board.processor.switch9.core.exec_context.thread_0.statExecutedInstType::SimdAddAcc            0      0.00%     63.05% # Class of executed instruction. (Count)
board.processor.switch9.core.exec_context.thread_0.statExecutedInstType::SimdAlu       979520      1.31%     64.36% # Class of executed instruction. (Count)
board.processor.switch9.core.exec_context.thread_0.statExecutedInstType::SimdCmp            0      0.00%     64.36% # Class of executed instruction. (Count)
board.processor.switch9.core.exec_context.thread_0.statExecutedInstType::SimdCvt            0      0.00%     64.36% # Class of executed instruction. (Count)
board.processor.switch9.core.exec_context.thread_0.statExecutedInstType::SimdMisc      1658074      2.22%     66.59% # Class of executed instruction. (Count)
board.processor.switch9.core.exec_context.thread_0.statExecutedInstType::SimdMult            0      0.00%     66.59% # Class of executed instruction. (Count)
board.processor.switch9.core.exec_context.thread_0.statExecutedInstType::SimdMultAcc            0      0.00%     66.59% # Class of executed instruction. (Count)
board.processor.switch9.core.exec_context.thread_0.statExecutedInstType::SimdShift            0      0.00%     66.59% # Class of executed instruction. (Count)
board.processor.switch9.core.exec_context.thread_0.statExecutedInstType::SimdShiftAcc            0      0.00%     66.59% # Class of executed instruction. (Count)
board.processor.switch9.core.exec_context.thread_0.statExecutedInstType::SimdDiv            0      0.00%     66.59% # Class of executed instruction. (Count)
board.processor.switch9.core.exec_context.thread_0.statExecutedInstType::SimdSqrt            0      0.00%     66.59% # Class of executed instruction. (Count)
board.processor.switch9.core.exec_context.thread_0.statExecutedInstType::SimdFloatAdd      7168106      9.61%     76.20% # Class of executed instruction. (Count)
board.processor.switch9.core.exec_context.thread_0.statExecutedInstType::SimdFloatAlu            0      0.00%     76.20% # Class of executed instruction. (Count)
board.processor.switch9.core.exec_context.thread_0.statExecutedInstType::SimdFloatCmp         1992      0.00%     76.20% # Class of executed instruction. (Count)
board.processor.switch9.core.exec_context.thread_0.statExecutedInstType::SimdFloatCvt      1775932      2.38%     78.58% # Class of executed instruction. (Count)
board.processor.switch9.core.exec_context.thread_0.statExecutedInstType::SimdFloatDiv       234694      0.31%     78.89% # Class of executed instruction. (Count)
board.processor.switch9.core.exec_context.thread_0.statExecutedInstType::SimdFloatMisc            0      0.00%     78.89% # Class of executed instruction. (Count)
board.processor.switch9.core.exec_context.thread_0.statExecutedInstType::SimdFloatMult      5192024      6.96%     85.86% # Class of executed instruction. (Count)
board.processor.switch9.core.exec_context.thread_0.statExecutedInstType::SimdFloatMultAcc            0      0.00%     85.86% # Class of executed instruction. (Count)
board.processor.switch9.core.exec_context.thread_0.statExecutedInstType::SimdFloatSqrt        73120      0.10%     85.95% # Class of executed instruction. (Count)
board.processor.switch9.core.exec_context.thread_0.statExecutedInstType::SimdReduceAdd            0      0.00%     85.95% # Class of executed instruction. (Count)
board.processor.switch9.core.exec_context.thread_0.statExecutedInstType::SimdReduceAlu            0      0.00%     85.95% # Class of executed instruction. (Count)
board.processor.switch9.core.exec_context.thread_0.statExecutedInstType::SimdReduceCmp            0      0.00%     85.95% # Class of executed instruction. (Count)
board.processor.switch9.core.exec_context.thread_0.statExecutedInstType::SimdFloatReduceAdd            0      0.00%     85.95% # Class of executed instruction. (Count)
board.processor.switch9.core.exec_context.thread_0.statExecutedInstType::SimdFloatReduceCmp            0      0.00%     85.95% # Class of executed instruction. (Count)
board.processor.switch9.core.exec_context.thread_0.statExecutedInstType::SimdAes            0      0.00%     85.95% # Class of executed instruction. (Count)
board.processor.switch9.core.exec_context.thread_0.statExecutedInstType::SimdAesMix            0      0.00%     85.95% # Class of executed instruction. (Count)
board.processor.switch9.core.exec_context.thread_0.statExecutedInstType::SimdSha1Hash            0      0.00%     85.95% # Class of executed instruction. (Count)
board.processor.switch9.core.exec_context.thread_0.statExecutedInstType::SimdSha1Hash2            0      0.00%     85.95% # Class of executed instruction. (Count)
board.processor.switch9.core.exec_context.thread_0.statExecutedInstType::SimdSha256Hash            0      0.00%     85.95% # Class of executed instruction. (Count)
board.processor.switch9.core.exec_context.thread_0.statExecutedInstType::SimdSha256Hash2            0      0.00%     85.95% # Class of executed instruction. (Count)
board.processor.switch9.core.exec_context.thread_0.statExecutedInstType::SimdShaSigma2            0      0.00%     85.95% # Class of executed instruction. (Count)
board.processor.switch9.core.exec_context.thread_0.statExecutedInstType::SimdShaSigma3            0      0.00%     85.95% # Class of executed instruction. (Count)
board.processor.switch9.core.exec_context.thread_0.statExecutedInstType::SimdPredAlu            0      0.00%     85.95% # Class of executed instruction. (Count)
board.processor.switch9.core.exec_context.thread_0.statExecutedInstType::MemRead      4742592      6.36%     92.31% # Class of executed instruction. (Count)
board.processor.switch9.core.exec_context.thread_0.statExecutedInstType::MemWrite      1139533      1.53%     93.84% # Class of executed instruction. (Count)
board.processor.switch9.core.exec_context.thread_0.statExecutedInstType::FloatMemRead      3646902      4.89%     98.73% # Class of executed instruction. (Count)
board.processor.switch9.core.exec_context.thread_0.statExecutedInstType::FloatMemWrite       948307      1.27%    100.00% # Class of executed instruction. (Count)
board.processor.switch9.core.exec_context.thread_0.statExecutedInstType::IprAccess            0      0.00%    100.00% # Class of executed instruction. (Count)
board.processor.switch9.core.exec_context.thread_0.statExecutedInstType::InstPrefetch            0      0.00%    100.00% # Class of executed instruction. (Count)
board.processor.switch9.core.exec_context.thread_0.statExecutedInstType::total     74588967                       # Class of executed instruction. (Count)
board.processor.switch9.core.mmu.dtb.rdAccesses      8483999                       # TLB accesses on read requests (Count)
board.processor.switch9.core.mmu.dtb.wrAccesses      2090795                       # TLB accesses on write requests (Count)
board.processor.switch9.core.mmu.dtb.rdMisses        62546                       # TLB misses on read requests (Count)
board.processor.switch9.core.mmu.dtb.wrMisses         1032                       # TLB misses on write requests (Count)
board.processor.switch9.core.mmu.dtb.walker.power_state.pwrStateResidencyTicks::UNDEFINED 19737523125596                       # Cumulative time (in ticks) in various power states (Tick)
board.processor.switch9.core.mmu.itb.rdAccesses            0                       # TLB accesses on read requests (Count)
board.processor.switch9.core.mmu.itb.wrAccesses     59290937                       # TLB accesses on write requests (Count)
board.processor.switch9.core.mmu.itb.rdMisses            0                       # TLB misses on read requests (Count)
board.processor.switch9.core.mmu.itb.wrMisses         2333                       # TLB misses on write requests (Count)
board.processor.switch9.core.mmu.itb.walker.power_state.pwrStateResidencyTicks::UNDEFINED 19737523125596                       # Cumulative time (in ticks) in various power states (Tick)
board.processor.switch9.core.power_state.numTransitions          367                       # Number of power state transitions (Count)
board.processor.switch9.core.power_state.ticksClkGated::samples          184                       # Distribution of time spent in the clock gated state (Tick)
board.processor.switch9.core.power_state.ticksClkGated::mean 689924354.543478                       # Distribution of time spent in the clock gated state (Tick)
board.processor.switch9.core.power_state.ticksClkGated::stdev 425869316.238051                       # Distribution of time spent in the clock gated state (Tick)
board.processor.switch9.core.power_state.ticksClkGated::1000-5e+10          184    100.00%    100.00% # Distribution of time spent in the clock gated state (Tick)
board.processor.switch9.core.power_state.ticksClkGated::min_value       479521                       # Distribution of time spent in the clock gated state (Tick)
board.processor.switch9.core.power_state.ticksClkGated::max_value    997115553                       # Distribution of time spent in the clock gated state (Tick)
board.processor.switch9.core.power_state.ticksClkGated::total          184                       # Distribution of time spent in the clock gated state (Tick)
board.processor.switch9.core.power_state.pwrStateResidencyTicks::ON  50686537337                       # Cumulative time (in ticks) in various power states (Tick)
board.processor.switch9.core.power_state.pwrStateResidencyTicks::CLK_GATED 126946081236                       # Cumulative time (in ticks) in various power states (Tick)
board.processor.switch9.core.power_state.pwrStateResidencyTicks::OFF 19559890507023                       # Cumulative time (in ticks) in various power states (Tick)
board.processor.switch9.core.thread_0.numInsts            0                       # Number of Instructions committed (Count)
board.processor.switch9.core.thread_0.numOps            0                       # Number of Ops committed (Count)
board.processor.switch9.core.thread_0.numMemRefs            0                       # Number of Memory References (Count)
board.workload.inst.arm                             0                       # number of arm instructions executed (Count)
board.workload.inst.quiesce                         0                       # number of quiesce instructions executed (Count)

---------- End Simulation Statistics   ----------
