
---------- Begin Simulation Statistics ----------
simSeconds                                   0.185873                       # Number of seconds simulated (Second)
simTicks                                 185872522753                       # Number of ticks simulated (Tick)
finalTick                                19826794951076                       # Number of ticks from beginning of simulation (restored from checkpoints and never reset) (Tick)
simFreq                                  1000000000000                       # The number of ticks per simulated second ((Tick/Second))
hostSeconds                                   2033.87                       # Real time elapsed on the host (Second)
hostTickRate                                 91388791                       # The number of ticks simulated per host second (ticks/s) ((Tick/Second))
hostMemory                                    4920916                       # Number of bytes of host memory used (Byte)
simInsts                                   8925089491                       # Number of instructions simulated (Count)
simOps                                     9452304545                       # Number of ops (including micro ops) simulated (Count)
hostInstRate                                  4388239                       # Simulator instruction rate (inst/s) ((Count/Second))
hostOpRate                                    4647457                       # Simulator op (including micro ops) rate (op/s) ((Count/Second))
board.cache_hierarchy.ruby_system.delayHistogram::bucket_size          256                       # delay histogram for all message (Unspecified)
board.cache_hierarchy.ruby_system.delayHistogram::max_bucket         2559                       # delay histogram for all message (Unspecified)
board.cache_hierarchy.ruby_system.delayHistogram::samples     26755550                       # delay histogram for all message (Unspecified)
board.cache_hierarchy.ruby_system.delayHistogram::mean     0.453201                       # delay histogram for all message (Unspecified)
board.cache_hierarchy.ruby_system.delayHistogram::stdev     2.383343                       # delay histogram for all message (Unspecified)
board.cache_hierarchy.ruby_system.delayHistogram |    26755395    100.00%    100.00% |         122      0.00%    100.00% |          24      0.00%    100.00% |           5      0.00%    100.00% |           3      0.00%    100.00% |           1      0.00%    100.00% |           0      0.00%    100.00% |           0      0.00%    100.00% |           0      0.00%    100.00% |           0      0.00%    100.00% # delay histogram for all message (Unspecified)
board.cache_hierarchy.ruby_system.delayHistogram::total     26755550                       # delay histogram for all message (Unspecified)
board.cache_hierarchy.ruby_system.m_outstandReqHistSeqr::bucket_size            1                       (Unspecified)
board.cache_hierarchy.ruby_system.m_outstandReqHistSeqr::max_bucket            9                       (Unspecified)
board.cache_hierarchy.ruby_system.m_outstandReqHistSeqr::samples   1214971793                       (Unspecified)
board.cache_hierarchy.ruby_system.m_outstandReqHistSeqr::mean     1.000487                       (Unspecified)
board.cache_hierarchy.ruby_system.m_outstandReqHistSeqr::gmean     1.000338                       (Unspecified)
board.cache_hierarchy.ruby_system.m_outstandReqHistSeqr::stdev     0.022064                       (Unspecified)
board.cache_hierarchy.ruby_system.m_outstandReqHistSeqr |           0      0.00%      0.00% |  1214380023     99.95%     99.95% |      591770      0.05%    100.00% |           0      0.00%    100.00% |           0      0.00%    100.00% |           0      0.00%    100.00% |           0      0.00%    100.00% |           0      0.00%    100.00% |           0      0.00%    100.00% |           0      0.00%    100.00% (Unspecified)
board.cache_hierarchy.ruby_system.m_outstandReqHistSeqr::total   1214971793                       (Unspecified)
board.cache_hierarchy.ruby_system.m_latencyHistSeqr::bucket_size          256                       (Unspecified)
board.cache_hierarchy.ruby_system.m_latencyHistSeqr::max_bucket         2559                       (Unspecified)
board.cache_hierarchy.ruby_system.m_latencyHistSeqr::samples   1214971793                       (Unspecified)
board.cache_hierarchy.ruby_system.m_latencyHistSeqr::mean     1.205688                       (Unspecified)
board.cache_hierarchy.ruby_system.m_latencyHistSeqr::gmean     1.022554                       (Unspecified)
board.cache_hierarchy.ruby_system.m_latencyHistSeqr::stdev     5.755832                       (Unspecified)
board.cache_hierarchy.ruby_system.m_latencyHistSeqr |  1214916823    100.00%    100.00% |       40311      0.00%    100.00% |        3458      0.00%    100.00% |        3401      0.00%    100.00% |        7172      0.00%    100.00% |         552      0.00%    100.00% |          73      0.00%    100.00% |           3      0.00%    100.00% |           0      0.00%    100.00% |           0      0.00%    100.00% (Unspecified)
board.cache_hierarchy.ruby_system.m_latencyHistSeqr::total   1214971793                       (Unspecified)
board.cache_hierarchy.ruby_system.m_hitLatencyHistSeqr::bucket_size            1                       (Unspecified)
board.cache_hierarchy.ruby_system.m_hitLatencyHistSeqr::max_bucket            9                       (Unspecified)
board.cache_hierarchy.ruby_system.m_hitLatencyHistSeqr::samples   1205230377                       (Unspecified)
board.cache_hierarchy.ruby_system.m_hitLatencyHistSeqr::mean            1                       (Unspecified)
board.cache_hierarchy.ruby_system.m_hitLatencyHistSeqr::gmean            1                       (Unspecified)
board.cache_hierarchy.ruby_system.m_hitLatencyHistSeqr |           0      0.00%      0.00% |  1205230377    100.00%    100.00% |           0      0.00%    100.00% |           0      0.00%    100.00% |           0      0.00%    100.00% |           0      0.00%    100.00% |           0      0.00%    100.00% |           0      0.00%    100.00% |           0      0.00%    100.00% |           0      0.00%    100.00% (Unspecified)
board.cache_hierarchy.ruby_system.m_hitLatencyHistSeqr::total   1205230377                       (Unspecified)
board.cache_hierarchy.ruby_system.m_missLatencyHistSeqr::bucket_size          256                       (Unspecified)
board.cache_hierarchy.ruby_system.m_missLatencyHistSeqr::max_bucket         2559                       (Unspecified)
board.cache_hierarchy.ruby_system.m_missLatencyHistSeqr::samples      9741416                       (Unspecified)
board.cache_hierarchy.ruby_system.m_missLatencyHistSeqr::mean    26.653909                       (Unspecified)
board.cache_hierarchy.ruby_system.m_missLatencyHistSeqr::gmean    16.146698                       (Unspecified)
board.cache_hierarchy.ruby_system.m_missLatencyHistSeqr::stdev    58.984361                       (Unspecified)
board.cache_hierarchy.ruby_system.m_missLatencyHistSeqr |     9686446     99.44%     99.44% |       40311      0.41%     99.85% |        3458      0.04%     99.89% |        3401      0.03%     99.92% |        7172      0.07%     99.99% |         552      0.01%    100.00% |          73      0.00%    100.00% |           3      0.00%    100.00% |           0      0.00%    100.00% |           0      0.00%    100.00% (Unspecified)
board.cache_hierarchy.ruby_system.m_missLatencyHistSeqr::total      9741416                       (Unspecified)
board.cache_hierarchy.ruby_system.delayVCHist.vnet_0::bucket_size          256                       # delay histogram for vnet_0 (Unspecified)
board.cache_hierarchy.ruby_system.delayVCHist.vnet_0::max_bucket         2559                       # delay histogram for vnet_0 (Unspecified)
board.cache_hierarchy.ruby_system.delayVCHist.vnet_0::samples     12199515                       # delay histogram for vnet_0 (Unspecified)
board.cache_hierarchy.ruby_system.delayVCHist.vnet_0::mean     0.577042                       # delay histogram for vnet_0 (Unspecified)
board.cache_hierarchy.ruby_system.delayVCHist.vnet_0::stdev     2.997475                       # delay histogram for vnet_0 (Unspecified)
board.cache_hierarchy.ruby_system.delayVCHist.vnet_0 |    12199360    100.00%    100.00% |         122      0.00%    100.00% |          24      0.00%    100.00% |           5      0.00%    100.00% |           3      0.00%    100.00% |           1      0.00%    100.00% |           0      0.00%    100.00% |           0      0.00%    100.00% |           0      0.00%    100.00% |           0      0.00%    100.00% # delay histogram for vnet_0 (Unspecified)
board.cache_hierarchy.ruby_system.delayVCHist.vnet_0::total     12199515                       # delay histogram for vnet_0 (Unspecified)
board.cache_hierarchy.ruby_system.delayVCHist.vnet_1::bucket_size            8                       # delay histogram for vnet_1 (Unspecified)
board.cache_hierarchy.ruby_system.delayVCHist.vnet_1::max_bucket           79                       # delay histogram for vnet_1 (Unspecified)
board.cache_hierarchy.ruby_system.delayVCHist.vnet_1::samples     13341183                       # delay histogram for vnet_1 (Unspecified)
board.cache_hierarchy.ruby_system.delayVCHist.vnet_1::mean     0.381198                       # delay histogram for vnet_1 (Unspecified)
board.cache_hierarchy.ruby_system.delayVCHist.vnet_1::stdev     1.771408                       # delay histogram for vnet_1 (Unspecified)
board.cache_hierarchy.ruby_system.delayVCHist.vnet_1 |    13001786     97.46%     97.46% |      333503      2.50%     99.96% |        5262      0.04%    100.00% |         528      0.00%    100.00% |          90      0.00%    100.00% |          10      0.00%    100.00% |           4      0.00%    100.00% |           0      0.00%    100.00% |           0      0.00%    100.00% |           0      0.00%    100.00% # delay histogram for vnet_1 (Unspecified)
board.cache_hierarchy.ruby_system.delayVCHist.vnet_1::total     13341183                       # delay histogram for vnet_1 (Unspecified)
board.cache_hierarchy.ruby_system.delayVCHist.vnet_2::bucket_size            1                       # delay histogram for vnet_2 (Unspecified)
board.cache_hierarchy.ruby_system.delayVCHist.vnet_2::max_bucket            9                       # delay histogram for vnet_2 (Unspecified)
board.cache_hierarchy.ruby_system.delayVCHist.vnet_2::samples      1214852                       # delay histogram for vnet_2 (Unspecified)
board.cache_hierarchy.ruby_system.delayVCHist.vnet_2::mean     0.000321                       # delay histogram for vnet_2 (Unspecified)
board.cache_hierarchy.ruby_system.delayVCHist.vnet_2::stdev     0.025337                       # delay histogram for vnet_2 (Unspecified)
board.cache_hierarchy.ruby_system.delayVCHist.vnet_2 |     1214657     99.98%     99.98% |           0      0.00%     99.98% |         195      0.02%    100.00% |           0      0.00%    100.00% |           0      0.00%    100.00% |           0      0.00%    100.00% |           0      0.00%    100.00% |           0      0.00%    100.00% |           0      0.00%    100.00% |           0      0.00%    100.00% # delay histogram for vnet_2 (Unspecified)
board.cache_hierarchy.ruby_system.delayVCHist.vnet_2::total      1214852                       # delay histogram for vnet_2 (Unspecified)
board.cache_hierarchy.ruby_system.Directory_Controller.Fetch |      330143     49.27%     49.27% |      339991     50.73%    100.00% (Unspecified)
board.cache_hierarchy.ruby_system.Directory_Controller.Fetch::total       670134                       (Unspecified)
board.cache_hierarchy.ruby_system.Directory_Controller.Data |      157460     46.36%     46.36% |      182218     53.64%    100.00% (Unspecified)
board.cache_hierarchy.ruby_system.Directory_Controller.Data::total       339678                       (Unspecified)
board.cache_hierarchy.ruby_system.Directory_Controller.Memory_Data |      330145     49.27%     49.27% |      339991     50.73%    100.00% (Unspecified)
board.cache_hierarchy.ruby_system.Directory_Controller.Memory_Data::total       670136                       (Unspecified)
board.cache_hierarchy.ruby_system.Directory_Controller.Memory_Ack |      158484     46.38%     46.38% |      183242     53.62%    100.00% (Unspecified)
board.cache_hierarchy.ruby_system.Directory_Controller.Memory_Ack::total       341726                       (Unspecified)
board.cache_hierarchy.ruby_system.Directory_Controller.DMA_READ |           3    100.00%    100.00% |           0      0.00%    100.00% (Unspecified)
board.cache_hierarchy.ruby_system.Directory_Controller.DMA_READ::total            3                       (Unspecified)
board.cache_hierarchy.ruby_system.Directory_Controller.DMA_WRITE |        1024     50.00%     50.00% |        1024     50.00%    100.00% (Unspecified)
board.cache_hierarchy.ruby_system.Directory_Controller.DMA_WRITE::total         2048                       (Unspecified)
board.cache_hierarchy.ruby_system.Directory_Controller.CleanReplacement |      168587     52.31%     52.31% |      153677     47.69%    100.00% (Unspecified)
board.cache_hierarchy.ruby_system.Directory_Controller.CleanReplacement::total       322264                       (Unspecified)
board.cache_hierarchy.ruby_system.Directory_Controller.I.Fetch |      330143     49.27%     49.27% |      339991     50.73%    100.00% (Unspecified)
board.cache_hierarchy.ruby_system.Directory_Controller.I.Fetch::total       670134                       (Unspecified)
board.cache_hierarchy.ruby_system.Directory_Controller.I.DMA_READ |           2    100.00%    100.00% |           0      0.00%    100.00% (Unspecified)
board.cache_hierarchy.ruby_system.Directory_Controller.I.DMA_READ::total            2                       (Unspecified)
board.cache_hierarchy.ruby_system.Directory_Controller.I.DMA_WRITE |        1024     50.00%     50.00% |        1024     50.00%    100.00% (Unspecified)
board.cache_hierarchy.ruby_system.Directory_Controller.I.DMA_WRITE::total         2048                       (Unspecified)
board.cache_hierarchy.ruby_system.Directory_Controller.ID.Memory_Data |           2    100.00%    100.00% |           0      0.00%    100.00% (Unspecified)
board.cache_hierarchy.ruby_system.Directory_Controller.ID.Memory_Data::total            2                       (Unspecified)
board.cache_hierarchy.ruby_system.Directory_Controller.ID_W.Memory_Ack |        1024     50.00%     50.00% |        1024     50.00%    100.00% (Unspecified)
board.cache_hierarchy.ruby_system.Directory_Controller.ID_W.Memory_Ack::total         2048                       (Unspecified)
board.cache_hierarchy.ruby_system.Directory_Controller.M.Data |      157459     46.36%     46.36% |      182218     53.64%    100.00% (Unspecified)
board.cache_hierarchy.ruby_system.Directory_Controller.M.Data::total       339677                       (Unspecified)
board.cache_hierarchy.ruby_system.Directory_Controller.M.DMA_READ |           1    100.00%    100.00% |           0      0.00%    100.00% (Unspecified)
board.cache_hierarchy.ruby_system.Directory_Controller.M.DMA_READ::total            1                       (Unspecified)
board.cache_hierarchy.ruby_system.Directory_Controller.M.CleanReplacement |      168587     52.31%     52.31% |      153677     47.69%    100.00% (Unspecified)
board.cache_hierarchy.ruby_system.Directory_Controller.M.CleanReplacement::total       322264                       (Unspecified)
board.cache_hierarchy.ruby_system.Directory_Controller.IM.Memory_Data |      330143     49.27%     49.27% |      339991     50.73%    100.00% (Unspecified)
board.cache_hierarchy.ruby_system.Directory_Controller.IM.Memory_Data::total       670134                       (Unspecified)
board.cache_hierarchy.ruby_system.Directory_Controller.MI.Memory_Ack |      157459     46.36%     46.36% |      182218     53.64%    100.00% (Unspecified)
board.cache_hierarchy.ruby_system.Directory_Controller.MI.Memory_Ack::total       339677                       (Unspecified)
board.cache_hierarchy.ruby_system.Directory_Controller.M_DRD.Data |           1    100.00%    100.00% |           0      0.00%    100.00% (Unspecified)
board.cache_hierarchy.ruby_system.Directory_Controller.M_DRD.Data::total            1                       (Unspecified)
board.cache_hierarchy.ruby_system.Directory_Controller.M_DRDI.Memory_Ack |           1    100.00%    100.00% |           0      0.00%    100.00% (Unspecified)
board.cache_hierarchy.ruby_system.Directory_Controller.M_DRDI.Memory_Ack::total            1                       (Unspecified)
board.cache_hierarchy.ruby_system.DMA_Controller.ReadRequest |           3    100.00%    100.00% |           0      0.00%    100.00% (Unspecified)
board.cache_hierarchy.ruby_system.DMA_Controller.ReadRequest::total            3                       (Unspecified)
board.cache_hierarchy.ruby_system.DMA_Controller.WriteRequest |        2048    100.00%    100.00% |           0      0.00%    100.00% (Unspecified)
board.cache_hierarchy.ruby_system.DMA_Controller.WriteRequest::total         2048                       (Unspecified)
board.cache_hierarchy.ruby_system.DMA_Controller.Data |           3    100.00%    100.00% |           0      0.00%    100.00% (Unspecified)
board.cache_hierarchy.ruby_system.DMA_Controller.Data::total            3                       (Unspecified)
board.cache_hierarchy.ruby_system.DMA_Controller.Ack |        2048    100.00%    100.00% |           0      0.00%    100.00% (Unspecified)
board.cache_hierarchy.ruby_system.DMA_Controller.Ack::total         2048                       (Unspecified)
board.cache_hierarchy.ruby_system.DMA_Controller.READY.ReadRequest |           3    100.00%    100.00% |           0      0.00%    100.00% (Unspecified)
board.cache_hierarchy.ruby_system.DMA_Controller.READY.ReadRequest::total            3                       (Unspecified)
board.cache_hierarchy.ruby_system.DMA_Controller.READY.WriteRequest |        2048    100.00%    100.00% |           0      0.00%    100.00% (Unspecified)
board.cache_hierarchy.ruby_system.DMA_Controller.READY.WriteRequest::total         2048                       (Unspecified)
board.cache_hierarchy.ruby_system.DMA_Controller.BUSY_RD.Data |           3    100.00%    100.00% |           0      0.00%    100.00% (Unspecified)
board.cache_hierarchy.ruby_system.DMA_Controller.BUSY_RD.Data::total            3                       (Unspecified)
board.cache_hierarchy.ruby_system.DMA_Controller.BUSY_WR.Ack |        2048    100.00%    100.00% |           0      0.00%    100.00% (Unspecified)
board.cache_hierarchy.ruby_system.DMA_Controller.BUSY_WR.Ack::total         2048                       (Unspecified)
board.cache_hierarchy.ruby_system.L1Cache_Controller.Load |     9271810      6.65%      6.65% |     9254764      6.64%     13.29% |     9053124      6.49%     19.78% |     9192194      6.59%     26.38% |     9336159      6.70%     33.08% |     9315876      6.68%     39.76% |      109158      0.08%     39.84% |    18814047     13.50%     53.33% |      117549      0.08%     53.42% |     9226362      6.62%     60.04% |     9310080      6.68%     66.72% |     9177534      6.58%     73.30% |     9324327      6.69%     79.99% |     9173619      6.58%     86.57% |     9264892      6.65%     93.22% |     9456907      6.78%    100.00% (Unspecified)
board.cache_hierarchy.ruby_system.L1Cache_Controller.Load::total    139398402                       (Unspecified)
board.cache_hierarchy.ruby_system.L1Cache_Controller.Ifetch |    68802337      6.72%      6.72% |    68969420      6.73%     13.45% |    67590952      6.60%     20.05% |    68563212      6.69%     26.74% |    68787146      6.72%     33.46% |    69528311      6.79%     40.24% |      443688      0.04%     40.29% |   126610433     12.36%     52.65% |      480778      0.05%     52.69% |    68776327      6.71%     59.41% |    69583850      6.79%     66.20% |    68522960      6.69%     72.89% |    69532676      6.79%     79.68% |    68369769      6.67%     86.35% |    69144589      6.75%     93.10% |    70662081      6.90%    100.00% (Unspecified)
board.cache_hierarchy.ruby_system.L1Cache_Controller.Ifetch::total   1024368529                       (Unspecified)
board.cache_hierarchy.ruby_system.L1Cache_Controller.Store |     3340761      6.52%      6.52% |     3289109      6.42%     12.95% |     3197505      6.24%     19.19% |     3255828      6.36%     25.55% |     3414017      6.67%     32.22% |     3311381      6.47%     38.69% |       72946      0.14%     38.83% |     8149273     15.92%     54.74% |       77526      0.15%     54.89% |     3303791      6.45%     61.35% |     3304221      6.45%     67.80% |     3252391      6.35%     74.15% |     3320274      6.48%     80.63% |     3254781      6.36%     86.99% |     3301661      6.45%     93.44% |     3359397      6.56%    100.00% (Unspecified)
board.cache_hierarchy.ruby_system.L1Cache_Controller.Store::total     51204862                       (Unspecified)
board.cache_hierarchy.ruby_system.L1Cache_Controller.Inv |       86254      7.68%      7.68% |       80672      7.18%     14.87% |       77859      6.93%     21.80% |       79166      7.05%     28.85% |       80102      7.13%     35.98% |       80330      7.15%     43.14% |       21365      1.90%     45.04% |       48721      4.34%     49.38% |       22585      2.01%     51.39% |       78039      6.95%     58.34% |       77692      6.92%     65.26% |       76941      6.85%     72.11% |       79541      7.08%     79.20% |       77018      6.86%     86.06% |       78087      6.95%     93.01% |       78495      6.99%    100.00% (Unspecified)
board.cache_hierarchy.ruby_system.L1Cache_Controller.Inv::total      1122867                       (Unspecified)
board.cache_hierarchy.ruby_system.L1Cache_Controller.L1_Replacement |      679460      7.29%      7.29% |      668658      7.18%     14.47% |      655823      7.04%     21.51% |      664524      7.13%     28.64% |      661245      7.10%     35.73% |      673721      7.23%     42.96% |        2580      0.03%     42.99% |      609323      6.54%     49.53% |        3862      0.04%     49.57% |      666006      7.15%     56.72% |      672371      7.22%     63.94% |      667385      7.16%     71.10% |      676870      7.26%     78.36% |      661266      7.10%     85.46% |      669237      7.18%     92.64% |      685774      7.36%    100.00% (Unspecified)
board.cache_hierarchy.ruby_system.L1Cache_Controller.L1_Replacement::total      9318105                       (Unspecified)
board.cache_hierarchy.ruby_system.L1Cache_Controller.Fwd_GETX |        1706      8.38%      8.38% |        1384      6.80%     15.18% |        1238      6.08%     21.27% |        1760      8.65%     29.91% |        1535      7.54%     37.46% |        1559      7.66%     45.12% |          40      0.20%     45.31% |         334      1.64%     46.95% |          38      0.19%     47.14% |        1492      7.33%     54.47% |        1331      6.54%     61.01% |        1515      7.44%     68.46% |        1705      8.38%     76.83% |        1655      8.13%     84.96% |        1589      7.81%     92.77% |        1471      7.23%    100.00% (Unspecified)
board.cache_hierarchy.ruby_system.L1Cache_Controller.Fwd_GETX::total        20352                       (Unspecified)
board.cache_hierarchy.ruby_system.L1Cache_Controller.Fwd_GETS |        6775      9.46%      9.46% |        4877      6.81%     16.27% |        4175      5.83%     22.09% |        5647      7.88%     29.98% |        5294      7.39%     37.37% |        4868      6.80%     44.16% |         762      1.06%     45.23% |        2111      2.95%     48.17% |         546      0.76%     48.94% |        5735      8.01%     56.94% |        5320      7.43%     64.37% |        4617      6.45%     70.82% |        5684      7.93%     78.75% |        4601      6.42%     85.17% |        4734      6.61%     91.78% |        5887      8.22%    100.00% (Unspecified)
board.cache_hierarchy.ruby_system.L1Cache_Controller.Fwd_GETS::total        71633                       (Unspecified)
board.cache_hierarchy.ruby_system.L1Cache_Controller.Data |         675     12.16%     12.16% |         213      3.84%     15.99% |         158      2.85%     18.84% |         509      9.17%     28.01% |         437      7.87%     35.88% |         441      7.94%     43.82% |          10      0.18%     44.00% |         125      2.25%     46.25% |          12      0.22%     46.47% |         289      5.21%     51.68% |         480      8.65%     60.32% |         392      7.06%     67.38% |         464      8.36%     75.74% |         423      7.62%     83.36% |         482      8.68%     92.04% |         442      7.96%    100.00% (Unspecified)
board.cache_hierarchy.ruby_system.L1Cache_Controller.Data::total         5552                       (Unspecified)
board.cache_hierarchy.ruby_system.L1Cache_Controller.Data_Exclusive |       35402      4.93%      4.93% |       33584      4.68%      9.61% |       32498      4.53%     14.13% |       32880      4.58%     18.71% |       32703      4.55%     23.26% |       33605      4.68%     27.94% |        5791      0.81%     28.75% |      271404     37.79%     66.54% |        5462      0.76%     67.30% |       33875      4.72%     72.02% |       33571      4.67%     76.69% |       33174      4.62%     81.31% |       34583      4.82%     86.12% |       32615      4.54%     90.67% |       32982      4.59%     95.26% |       34054      4.74%    100.00% (Unspecified)
board.cache_hierarchy.ruby_system.L1Cache_Controller.Data_Exclusive::total       718183                       (Unspecified)
board.cache_hierarchy.ruby_system.L1Cache_Controller.DataS_fromL1 |        5801      8.10%      8.10% |        6089      8.50%     16.60% |        4746      6.63%     23.22% |        5074      7.08%     30.31% |        5199      7.26%     37.57% |        5702      7.96%     45.53% |         411      0.57%     46.10% |        1742      2.43%     48.53% |         669      0.93%     49.46% |        5193      7.25%     56.71% |        5291      7.39%     64.10% |        4769      6.66%     70.76% |        5383      7.51%     78.27% |        5273      7.36%     85.63% |        5065      7.07%     92.70% |        5226      7.30%    100.00% (Unspecified)
board.cache_hierarchy.ruby_system.L1Cache_Controller.DataS_fromL1::total        71633                       (Unspecified)
board.cache_hierarchy.ruby_system.L1Cache_Controller.Data_all_Acks |      666145      7.47%      7.47% |      654059      7.33%     14.80% |      643538      7.22%     22.02% |      651437      7.30%     29.32% |      648265      7.27%     36.59% |      659710      7.40%     43.99% |       17654      0.20%     44.19% |      356549      4.00%     48.18% |       19220      0.22%     48.40% |      651612      7.31%     55.71% |      658794      7.39%     63.09% |      654526      7.34%     70.43% |      661785      7.42%     77.85% |      648549      7.27%     85.12% |      655889      7.35%     92.48% |      670823      7.52%    100.00% (Unspecified)
board.cache_hierarchy.ruby_system.L1Cache_Controller.Data_all_Acks::total      8918555                       (Unspecified)
board.cache_hierarchy.ruby_system.L1Cache_Controller.Ack |       13644     25.75%     25.75% |        3147      5.94%     31.68% |        2509      4.73%     36.42% |        3362      6.34%     42.76% |        3351      6.32%     49.09% |        2409      4.55%     53.63% |         295      0.56%     54.19% |        2205      4.16%     58.35% |         428      0.81%     59.16% |        4112      7.76%     66.92% |        2467      4.66%     71.57% |        2670      5.04%     76.61% |        3618      6.83%     83.44% |        2598      4.90%     88.34% |        3009      5.68%     94.02% |        3171      5.98%    100.00% (Unspecified)
board.cache_hierarchy.ruby_system.L1Cache_Controller.Ack::total        52995                       (Unspecified)
board.cache_hierarchy.ruby_system.L1Cache_Controller.Ack_all |        4153     12.57%     12.57% |        2134      6.46%     19.03% |        1536      4.65%     23.67% |        2704      8.18%     31.86% |        2757      8.34%     40.20% |        1876      5.68%     45.88% |         132      0.40%     46.28% |         892      2.70%     48.98% |         221      0.67%     49.64% |        2886      8.73%     58.38% |        1913      5.79%     64.17% |        1995      6.04%     70.20% |        2870      8.69%     78.89% |        2008      6.08%     84.97% |        2355      7.13%     92.09% |        2613      7.91%    100.00% (Unspecified)
board.cache_hierarchy.ruby_system.L1Cache_Controller.Ack_all::total        33045                       (Unspecified)
board.cache_hierarchy.ruby_system.L1Cache_Controller.WB_Ack |       48444      4.51%      4.51% |       46318      4.32%      8.83% |       45090      4.20%     13.03% |       44722      4.17%     17.20% |       45124      4.20%     21.40% |       47035      4.38%     25.79% |         297      0.03%     25.81% |      458563     42.73%     68.54% |         372      0.03%     68.58% |       48668      4.53%     73.11% |       47793      4.45%     77.57% |       47886      4.46%     82.03% |       48890      4.56%     86.58% |       47066      4.39%     90.97% |       48066      4.48%     95.45% |       48856      4.55%    100.00% (Unspecified)
board.cache_hierarchy.ruby_system.L1Cache_Controller.WB_Ack::total      1073190                       (Unspecified)
board.cache_hierarchy.ruby_system.L1Cache_Controller.NP.Load |      572217      7.43%      7.43% |      569601      7.40%     14.83% |      560949      7.28%     22.11% |      567682      7.37%     29.49% |      564542      7.33%     36.82% |      575673      7.48%     44.29% |        1431      0.02%     44.31% |      283483      3.68%     47.99% |        1752      0.02%     48.02% |      565877      7.35%     55.37% |      573232      7.44%     62.81% |      568324      7.38%     70.19% |      575938      7.48%     77.67% |      563524      7.32%     84.99% |      570221      7.41%     92.39% |      585722      7.61%    100.00% (Unspecified)
board.cache_hierarchy.ruby_system.L1Cache_Controller.NP.Load::total      7700168                       (Unspecified)
board.cache_hierarchy.ruby_system.L1Cache_Controller.NP.Ifetch |       82096      7.33%      7.33% |       75825      6.77%     14.09% |       72493      6.47%     20.56% |       74292      6.63%     27.19% |       73946      6.60%     33.79% |       74373      6.64%     40.43% |        1947      0.17%     40.60% |      129300     11.54%     52.14% |        2904      0.26%     52.40% |       76744      6.85%     59.25% |       75820      6.77%     66.01% |       75980      6.78%     72.79% |       77696      6.93%     79.73% |       74791      6.67%     86.40% |       75694      6.75%     93.16% |       76679      6.84%    100.00% (Unspecified)
board.cache_hierarchy.ruby_system.L1Cache_Controller.NP.Ifetch::total      1120580                       (Unspecified)
board.cache_hierarchy.ruby_system.L1Cache_Controller.NP.Store |       26171      5.09%      5.09% |       24256      4.72%      9.82% |       23405      4.56%     14.37% |       23574      4.59%     18.96% |       23781      4.63%     23.59% |       24699      4.81%     28.40% |         178      0.03%     28.44% |      197564     38.46%     66.90% |         211      0.04%     66.94% |       24409      4.75%     71.69% |       24343      4.74%     76.43% |       24105      4.69%     81.12% |       24260      4.72%     85.84% |       23975      4.67%     90.51% |       24346      4.74%     95.25% |       24397      4.75%    100.00% (Unspecified)
board.cache_hierarchy.ruby_system.L1Cache_Controller.NP.Store::total       513674                       (Unspecified)
board.cache_hierarchy.ruby_system.L1Cache_Controller.NP.Inv |       45558      7.82%      7.82% |       44080      7.56%     15.38% |       42296      7.26%     22.64% |       43547      7.47%     30.11% |       43910      7.53%     37.64% |       43862      7.53%     45.17% |         460      0.08%     45.24% |       16509      2.83%     48.08% |         846      0.15%     48.22% |       43059      7.39%     55.61% |       42732      7.33%     62.94% |       42501      7.29%     70.23% |       44254      7.59%     77.83% |       42041      7.21%     85.04% |       43251      7.42%     92.46% |       43957      7.54%    100.00% (Unspecified)
board.cache_hierarchy.ruby_system.L1Cache_Controller.NP.Inv::total       582863                       (Unspecified)
board.cache_hierarchy.ruby_system.L1Cache_Controller.I.Load |        7914      6.51%      6.51% |        7910      6.50%     13.01% |        7634      6.28%     19.29% |        7856      6.46%     25.75% |        7843      6.45%     32.20% |        8211      6.75%     38.95% |        7185      5.91%     44.86% |        5848      4.81%     49.67% |        7185      5.91%     55.58% |        7569      6.22%     61.80% |        8134      6.69%     68.49% |        7949      6.54%     75.03% |        7702      6.33%     81.36% |        8138      6.69%     88.06% |        7474      6.15%     94.20% |        7051      5.80%    100.00% (Unspecified)
board.cache_hierarchy.ruby_system.L1Cache_Controller.I.Load::total       121603                       (Unspecified)
board.cache_hierarchy.ruby_system.L1Cache_Controller.I.Ifetch |       15591      7.64%      7.64% |       12999      6.37%     14.02% |       12992      6.37%     20.39% |       13134      6.44%     26.83% |       13078      6.41%     33.24% |       13213      6.48%     39.71% |        9441      4.63%     44.34% |       11440      5.61%     49.95% |        9544      4.68%     54.63% |       12933      6.34%     60.97% |       13254      6.50%     67.47% |       13198      6.47%     73.94% |       13221      6.48%     80.42% |       13033      6.39%     86.81% |       13345      6.54%     93.35% |       13556      6.65%    100.00% (Unspecified)
board.cache_hierarchy.ruby_system.L1Cache_Controller.I.Ifetch::total       203972                       (Unspecified)
board.cache_hierarchy.ruby_system.L1Cache_Controller.I.Store |        4018      7.50%      7.50% |        3337      6.23%     13.73% |        3434      6.41%     20.14% |        3338      6.23%     26.37% |        3383      6.32%     32.69% |        3250      6.07%     38.76% |        3677      6.86%     45.62% |        2185      4.08%     49.70% |        3767      7.03%     56.73% |        3412      6.37%     63.10% |        3322      6.20%     69.30% |        3292      6.15%     75.45% |        3371      6.29%     81.74% |        3364      6.28%     88.02% |        3308      6.18%     94.20% |        3108      5.80%    100.00% (Unspecified)
board.cache_hierarchy.ruby_system.L1Cache_Controller.I.Store::total        53566                       (Unspecified)
board.cache_hierarchy.ruby_system.L1Cache_Controller.I.Inv |           0      0.00%      0.00% |           1    100.00%    100.00% |           0      0.00%    100.00% |           0      0.00%    100.00% |           0      0.00%    100.00% |           0      0.00%    100.00% |           0      0.00%    100.00% |           0      0.00%    100.00% |           0      0.00%    100.00% |           0      0.00%    100.00% |           0      0.00%    100.00% |           0      0.00%    100.00% |           0      0.00%    100.00% |           0      0.00%    100.00% |           0      0.00%    100.00% |           0      0.00%    100.00% (Unspecified)
board.cache_hierarchy.ruby_system.L1Cache_Controller.I.Inv::total            1                       (Unspecified)
board.cache_hierarchy.ruby_system.L1Cache_Controller.I.L1_Replacement |       14373      8.30%      8.30% |       13167      7.60%     15.90% |       12083      6.98%     22.88% |       12426      7.17%     30.05% |       12860      7.42%     37.48% |       12676      7.32%     44.79% |         547      0.32%     45.11% |       13069      7.55%     52.66% |        1157      0.67%     53.32% |       11953      6.90%     60.22% |       10945      6.32%     66.54% |       10896      6.29%     72.83% |       12098      6.98%     79.82% |       11501      6.64%     86.46% |       11785      6.80%     93.26% |       11667      6.74%    100.00% (Unspecified)
board.cache_hierarchy.ruby_system.L1Cache_Controller.I.L1_Replacement::total       173203                       (Unspecified)
board.cache_hierarchy.ruby_system.L1Cache_Controller.S.Load |     5624406      7.60%      7.60% |     5659513      7.65%     15.24% |     5564632      7.52%     22.76% |     5674239      7.66%     30.42% |     5609533      7.58%     38.00% |     5696960      7.70%     45.70% |       19515      0.03%     45.72% |      324768      0.44%     46.16% |       22354      0.03%     46.19% |     5620192      7.59%     53.78% |     5720727      7.73%     61.51% |     5653809      7.64%     69.15% |     5686794      7.68%     76.83% |     5656064      7.64%     84.47% |     5668846      7.66%     92.13% |     5826354      7.87%    100.00% (Unspecified)
board.cache_hierarchy.ruby_system.L1Cache_Controller.S.Load::total     74028706                       (Unspecified)
board.cache_hierarchy.ruby_system.L1Cache_Controller.S.Ifetch |    68704650      6.72%      6.72% |    68880596      6.73%     13.45% |    67505467      6.60%     20.05% |    68475786      6.69%     26.74% |    68700122      6.72%     33.46% |    69440725      6.79%     40.24% |      432300      0.04%     40.29% |   126469693     12.36%     52.65% |      468330      0.05%     52.69% |    68686650      6.71%     59.41% |    69494776      6.79%     66.20% |    68433782      6.69%     72.89% |    69441759      6.79%     79.68% |    68281945      6.67%     86.35% |    69055550      6.75%     93.10% |    70571846      6.90%    100.00% (Unspecified)
board.cache_hierarchy.ruby_system.L1Cache_Controller.S.Ifetch::total   1023043977                       (Unspecified)
board.cache_hierarchy.ruby_system.L1Cache_Controller.S.Store |        3494     12.54%     12.54% |        1938      6.96%     19.50% |        1411      5.07%     24.57% |        2219      7.97%     32.54% |        2351      8.44%     40.98% |        1474      5.29%     46.27% |         129      0.46%     46.73% |         767      2.75%     49.48% |         209      0.75%     50.24% |        2622      9.41%     59.65% |        1464      5.26%     64.91% |        1616      5.80%     70.71% |        2433      8.74%     79.44% |        1620      5.82%     85.26% |        1903      6.83%     92.09% |        2203      7.91%    100.00% (Unspecified)
board.cache_hierarchy.ruby_system.L1Cache_Controller.S.Store::total        27853                       (Unspecified)
board.cache_hierarchy.ruby_system.L1Cache_Controller.S.Inv |       28581      7.28%      7.28% |       26035      6.63%     13.91% |       25263      6.43%     20.34% |       25693      6.54%     26.88% |       25930      6.60%     33.49% |       26870      6.84%     40.33% |       12393      3.16%     43.49% |       21799      5.55%     49.04% |       13235      3.37%     52.41% |       26565      6.76%     59.17% |       26686      6.80%     65.97% |       26277      6.69%     72.66% |       26920      6.86%     79.51% |       26728      6.81%     86.32% |       26723      6.81%     93.13% |       26992      6.87%    100.00% (Unspecified)
board.cache_hierarchy.ruby_system.L1Cache_Controller.S.Inv::total       392690                       (Unspecified)
board.cache_hierarchy.ruby_system.L1Cache_Controller.S.L1_Replacement |      616643      7.64%      7.64% |      609173      7.55%     15.19% |      598650      7.42%     22.60% |      607376      7.52%     30.13% |      603261      7.47%     37.60% |      614010      7.61%     45.21% |        1736      0.02%     45.23% |      137691      1.71%     46.94% |        2333      0.03%     46.96% |      605385      7.50%     54.47% |      613633      7.60%     62.07% |      608603      7.54%     69.61% |      615882      7.63%     77.24% |      602699      7.47%     84.70% |      609386      7.55%     92.25% |      625251      7.75%    100.00% (Unspecified)
board.cache_hierarchy.ruby_system.L1Cache_Controller.S.L1_Replacement::total      8071712                       (Unspecified)
board.cache_hierarchy.ruby_system.L1Cache_Controller.E.Load |      394179      1.97%      1.97% |      409400      2.04%      4.01% |      398781      1.99%      5.99% |      383258      1.91%      7.91% |      421156      2.10%     10.01% |      432032      2.15%     12.16% |       18697      0.09%     12.25% |    14815750     73.87%     86.12% |       19480      0.10%     86.21% |      400791      2.00%     88.21% |      393418      1.96%     90.17% |      380495      1.90%     92.07% |      440873      2.20%     94.27% |      367621      1.83%     96.10% |      382474      1.91%     98.01% |      399292      1.99%    100.00% (Unspecified)
board.cache_hierarchy.ruby_system.L1Cache_Controller.E.Load::total     20057697                       (Unspecified)
board.cache_hierarchy.ruby_system.L1Cache_Controller.E.Store |       13732      6.27%      6.27% |       12768      5.83%     12.09% |       11866      5.42%     17.51% |       12194      5.57%     23.07% |       11841      5.40%     28.48% |       12177      5.56%     34.04% |        1000      0.46%     34.49% |       54712     24.97%     59.46% |        1002      0.46%     59.92% |       13091      5.97%     65.89% |       12340      5.63%     71.53% |       12381      5.65%     77.18% |       12686      5.79%     82.97% |       12149      5.54%     88.51% |       12681      5.79%     94.30% |       12493      5.70%    100.00% (Unspecified)
board.cache_hierarchy.ruby_system.L1Cache_Controller.E.Store::total       219113                       (Unspecified)
board.cache_hierarchy.ruby_system.L1Cache_Controller.E.Inv |        4452      7.45%      7.45% |        4039      6.76%     14.21% |        3978      6.66%     20.87% |        4127      6.91%     27.78% |        4248      7.11%     34.89% |        3846      6.44%     41.33% |        3909      6.54%     47.87% |        4967      8.31%     56.19% |        3820      6.39%     62.58% |        3304      5.53%     68.11% |        3256      5.45%     73.56% |        3140      5.26%     78.82% |        3344      5.60%     84.41% |        3227      5.40%     89.82% |        3080      5.16%     94.97% |        3004      5.03%    100.00% (Unspecified)
board.cache_hierarchy.ruby_system.L1Cache_Controller.E.Inv::total        59741                       (Unspecified)
board.cache_hierarchy.ruby_system.L1Cache_Controller.E.L1_Replacement |       14251      3.57%      3.57% |       14051      3.52%      7.09% |       14217      3.56%     10.65% |       13420      3.36%     14.01% |       13873      3.47%     17.48% |       14602      3.66%     21.14% |         183      0.05%     21.19% |      210565     52.73%     73.92% |         245      0.06%     73.98% |       14428      3.61%     77.59% |       14821      3.71%     81.30% |       15029      3.76%     85.07% |       15468      3.87%     88.94% |       14633      3.66%     92.61% |       14397      3.61%     96.21% |       15125      3.79%    100.00% (Unspecified)
board.cache_hierarchy.ruby_system.L1Cache_Controller.E.L1_Replacement::total       399308                       (Unspecified)
board.cache_hierarchy.ruby_system.L1Cache_Controller.E.Fwd_GETX |          58      9.28%      9.28% |          63     10.08%     19.36% |          19      3.04%     22.40% |          32      5.12%     27.52% |          32      5.12%     32.64% |          40      6.40%     39.04% |          19      3.04%     42.08% |          64     10.24%     52.32% |           6      0.96%     53.28% |          37      5.92%     59.20% |          34      5.44%     64.64% |          44      7.04%     71.68% |          38      6.08%     77.76% |          40      6.40%     84.16% |          46      7.36%     91.52% |          53      8.48%    100.00% (Unspecified)
board.cache_hierarchy.ruby_system.L1Cache_Controller.E.Fwd_GETX::total          625                       (Unspecified)
board.cache_hierarchy.ruby_system.L1Cache_Controller.E.Fwd_GETS |        2888      7.41%      7.41% |        2656      6.81%     14.22% |        2410      6.18%     20.41% |        3105      7.97%     28.37% |        2689      6.90%     35.27% |        2935      7.53%     42.80% |         605      1.55%     44.35% |        1026      2.63%     46.99% |         296      0.76%     47.74% |        2994      7.68%     55.43% |        3111      7.98%     63.41% |        2567      6.59%     69.99% |        3033      7.78%     77.77% |        2549      6.54%     84.31% |        2753      7.06%     91.38% |        3361      8.62%    100.00% (Unspecified)
board.cache_hierarchy.ruby_system.L1Cache_Controller.E.Fwd_GETS::total        38978                       (Unspecified)
board.cache_hierarchy.ruby_system.L1Cache_Controller.M.Load |     2673094      7.13%      7.13% |     2608340      6.96%     14.09% |     2521128      6.72%     20.81% |     2559159      6.83%     27.64% |     2733085      7.29%     34.93% |     2603000      6.94%     41.87% |       62330      0.17%     42.04% |     3384198      9.03%     51.06% |       66778      0.18%     51.24% |     2631933      7.02%     58.26% |     2614569      6.97%     65.24% |     2566957      6.85%     72.08% |     2613020      6.97%     79.05% |     2578272      6.88%     85.93% |     2635877      7.03%     92.96% |     2638488      7.04%    100.00% (Unspecified)
board.cache_hierarchy.ruby_system.L1Cache_Controller.M.Load::total     37490228                       (Unspecified)
board.cache_hierarchy.ruby_system.L1Cache_Controller.M.Store |     3293346      6.54%      6.54% |     3246810      6.44%     12.98% |     3157389      6.27%     19.24% |     3214503      6.38%     25.62% |     3372661      6.69%     32.32% |     3269781      6.49%     38.81% |       67962      0.13%     38.94% |     7894045     15.67%     54.61% |       72337      0.14%     54.75% |     3260257      6.47%     61.22% |     3262752      6.47%     67.69% |     3210997      6.37%     74.07% |     3277524      6.50%     80.57% |     3213673      6.38%     86.95% |     3259423      6.47%     93.42% |     3317196      6.58%    100.00% (Unspecified)
board.cache_hierarchy.ruby_system.L1Cache_Controller.M.Store::total     50390656                       (Unspecified)
board.cache_hierarchy.ruby_system.L1Cache_Controller.M.Inv |        7646      8.79%      8.79% |        6465      7.43%     16.22% |        6256      7.19%     23.40% |        5743      6.60%     30.00% |        5960      6.85%     36.85% |        5707      6.56%     43.41% |        4596      5.28%     48.69% |        5442      6.25%     54.95% |        4684      5.38%     60.33% |        5080      5.84%     66.17% |        4980      5.72%     71.89% |        5000      5.75%     77.63% |        4985      5.73%     83.36% |        4981      5.72%     89.09% |        4996      5.74%     94.83% |        4502      5.17%    100.00% (Unspecified)
board.cache_hierarchy.ruby_system.L1Cache_Controller.M.Inv::total        87023                       (Unspecified)
board.cache_hierarchy.ruby_system.L1Cache_Controller.M.L1_Replacement |       34193      5.07%      5.07% |       32267      4.79%      9.86% |       30873      4.58%     14.44% |       31302      4.65%     19.09% |       31251      4.64%     23.73% |       32433      4.81%     28.54% |         114      0.02%     28.56% |      247998     36.80%     65.36% |         127      0.02%     65.38% |       34240      5.08%     70.46% |       32972      4.89%     75.35% |       32857      4.88%     80.23% |       33422      4.96%     85.19% |       32433      4.81%     90.00% |       33669      5.00%     94.99% |       33731      5.01%    100.00% (Unspecified)
board.cache_hierarchy.ruby_system.L1Cache_Controller.M.L1_Replacement::total       673882                       (Unspecified)
board.cache_hierarchy.ruby_system.L1Cache_Controller.M.Fwd_GETX |        1648      8.35%      8.35% |        1321      6.70%     15.05% |        1219      6.18%     21.23% |        1728      8.76%     29.99% |        1503      7.62%     37.61% |        1519      7.70%     45.31% |          21      0.11%     45.41% |         270      1.37%     46.78% |          32      0.16%     46.95% |        1455      7.38%     54.32% |        1297      6.57%     60.90% |        1471      7.46%     68.35% |        1667      8.45%     76.80% |        1615      8.19%     84.99% |        1543      7.82%     92.81% |        1418      7.19%    100.00% (Unspecified)
board.cache_hierarchy.ruby_system.L1Cache_Controller.M.Fwd_GETX::total        19727                       (Unspecified)
board.cache_hierarchy.ruby_system.L1Cache_Controller.M.Fwd_GETS |        3885     11.90%     11.90% |        2220      6.80%     18.70% |        1765      5.41%     24.10% |        2542      7.79%     31.89% |        2604      7.98%     39.87% |        1933      5.92%     45.79% |         157      0.48%     46.27% |        1085      3.32%     49.59% |         250      0.77%     50.36% |        2741      8.40%     58.75% |        2209      6.77%     65.52% |        2050      6.28%     71.79% |        2651      8.12%     79.91% |        2051      6.28%     86.20% |        1981      6.07%     92.26% |        2526      7.74%    100.00% (Unspecified)
board.cache_hierarchy.ruby_system.L1Cache_Controller.M.Fwd_GETS::total        32650                       (Unspecified)
board.cache_hierarchy.ruby_system.L1Cache_Controller.IS.Inv |           1      0.64%      0.64% |          35     22.29%     22.93% |          33     21.02%     43.95% |          30     19.11%     63.06% |          20     12.74%     75.80% |           4      2.55%     78.34% |           0      0.00%     78.34% |           4      2.55%     80.89% |           0      0.00%     80.89% |           5      3.18%     84.08% |           6      3.82%     87.90% |           5      3.18%     91.08% |           6      3.82%     94.90% |           1      0.64%     95.54% |           5      3.18%     98.73% |           2      1.27%    100.00% (Unspecified)
board.cache_hierarchy.ruby_system.L1Cache_Controller.IS.Inv::total          157                       (Unspecified)
board.cache_hierarchy.ruby_system.L1Cache_Controller.IS.Data_Exclusive |       35402      4.93%      4.93% |       33584      4.68%      9.61% |       32498      4.53%     14.13% |       32880      4.58%     18.71% |       32703      4.55%     23.26% |       33605      4.68%     27.94% |        5791      0.81%     28.75% |      271404     37.79%     66.54% |        5462      0.76%     67.30% |       33875      4.72%     72.02% |       33571      4.67%     76.69% |       33174      4.62%     81.31% |       34583      4.82%     86.12% |       32615      4.54%     90.67% |       32982      4.59%     95.26% |       34054      4.74%    100.00% (Unspecified)
board.cache_hierarchy.ruby_system.L1Cache_Controller.IS.Data_Exclusive::total       718183                       (Unspecified)
board.cache_hierarchy.ruby_system.L1Cache_Controller.IS.DataS_fromL1 |        5801      8.10%      8.10% |        6088      8.50%     16.60% |        4746      6.63%     23.22% |        5074      7.08%     30.31% |        5199      7.26%     37.56% |        5702      7.96%     45.52% |         411      0.57%     46.10% |        1742      2.43%     48.53% |         669      0.93%     49.46% |        5193      7.25%     56.71% |        5291      7.39%     64.10% |        4769      6.66%     70.76% |        5383      7.51%     78.27% |        5273      7.36%     85.63% |        5065      7.07%     92.70% |        5226      7.30%    100.00% (Unspecified)
board.cache_hierarchy.ruby_system.L1Cache_Controller.IS.DataS_fromL1::total        71632                       (Unspecified)
board.cache_hierarchy.ruby_system.L1Cache_Controller.IS.Data_all_Acks |      636614      7.62%      7.62% |      626628      7.50%     15.12% |      616791      7.38%     22.50% |      624980      7.48%     29.98% |      621487      7.44%     37.41% |      632159      7.57%     44.98% |       13802      0.17%     45.14% |      156921      1.88%     47.02% |       15254      0.18%     47.21% |      624050      7.47%     54.67% |      631572      7.56%     62.23% |      627503      7.51%     69.74% |      634585      7.59%     77.33% |      621597      7.44%     84.77% |      628682      7.52%     92.30% |      643726      7.70%    100.00% (Unspecified)
board.cache_hierarchy.ruby_system.L1Cache_Controller.IS.Data_all_Acks::total      8356351                       (Unspecified)
board.cache_hierarchy.ruby_system.L1Cache_Controller.IM.Inv |           0      0.00%      0.00% |           0      0.00%      0.00% |           0      0.00%      0.00% |           1     16.67%     16.67% |           0      0.00%     16.67% |           0      0.00%     16.67% |           0      0.00%     16.67% |           0      0.00%     16.67% |           0      0.00%     16.67% |           1     16.67%     33.33% |           0      0.00%     33.33% |           1     16.67%     50.00% |           1     16.67%     66.67% |           2     33.33%    100.00% |           0      0.00%    100.00% |           0      0.00%    100.00% (Unspecified)
board.cache_hierarchy.ruby_system.L1Cache_Controller.IM.Inv::total            6                       (Unspecified)
board.cache_hierarchy.ruby_system.L1Cache_Controller.IM.Data |         675     12.16%     12.16% |         213      3.84%     15.99% |         158      2.85%     18.84% |         509      9.17%     28.01% |         437      7.87%     35.88% |         441      7.94%     43.82% |          10      0.18%     44.00% |         125      2.25%     46.25% |          12      0.22%     46.47% |         289      5.21%     51.68% |         480      8.65%     60.32% |         392      7.06%     67.38% |         464      8.36%     75.74% |         423      7.62%     83.36% |         482      8.68%     92.04% |         442      7.96%    100.00% (Unspecified)
board.cache_hierarchy.ruby_system.L1Cache_Controller.IM.Data::total         5552                       (Unspecified)
board.cache_hierarchy.ruby_system.L1Cache_Controller.IM.Data_all_Acks |       29530      5.25%      5.25% |       27397      4.87%     10.13% |       26714      4.75%     14.88% |       26427      4.70%     19.58% |       26758      4.76%     24.34% |       27547      4.90%     29.25% |        3852      0.69%     29.93% |      199624     35.52%     65.45% |        3966      0.71%     66.15% |       27557      4.90%     71.06% |       27216      4.84%     75.90% |       27018      4.81%     80.71% |       27194      4.84%     85.54% |       26951      4.80%     90.34% |       27202      4.84%     95.18% |       27095      4.82%    100.00% (Unspecified)
board.cache_hierarchy.ruby_system.L1Cache_Controller.IM.Data_all_Acks::total       562048                       (Unspecified)
board.cache_hierarchy.ruby_system.L1Cache_Controller.SM.Inv |          16      4.44%      4.44% |          17      4.72%      9.17% |          33      9.17%     18.33% |          24      6.67%     25.00% |          31      8.61%     33.61% |          39     10.83%     44.44% |           7      1.94%     46.39% |           0      0.00%     46.39% |           0      0.00%     46.39% |          25      6.94%     53.33% |          31      8.61%     61.94% |          13      3.61%     65.56% |          27      7.50%     73.06% |          35      9.72%     82.78% |          30      8.33%     91.11% |          32      8.89%    100.00% (Unspecified)
board.cache_hierarchy.ruby_system.L1Cache_Controller.SM.Inv::total          360                       (Unspecified)
board.cache_hierarchy.ruby_system.L1Cache_Controller.SM.Ack |       13644     25.75%     25.75% |        3147      5.94%     31.68% |        2509      4.73%     36.42% |        3362      6.34%     42.76% |        3351      6.32%     49.09% |        2409      4.55%     53.63% |         295      0.56%     54.19% |        2205      4.16%     58.35% |         428      0.81%     59.16% |        4112      7.76%     66.92% |        2467      4.66%     71.57% |        2670      5.04%     76.61% |        3618      6.83%     83.44% |        2598      4.90%     88.34% |        3009      5.68%     94.02% |        3171      5.98%    100.00% (Unspecified)
board.cache_hierarchy.ruby_system.L1Cache_Controller.SM.Ack::total        52995                       (Unspecified)
board.cache_hierarchy.ruby_system.L1Cache_Controller.SM.Ack_all |        4153     12.57%     12.57% |        2134      6.46%     19.03% |        1536      4.65%     23.67% |        2704      8.18%     31.86% |        2757      8.34%     40.20% |        1876      5.68%     45.88% |         132      0.40%     46.28% |         892      2.70%     48.98% |         221      0.67%     49.64% |        2886      8.73%     58.38% |        1913      5.79%     64.17% |        1995      6.04%     70.20% |        2870      8.69%     78.89% |        2008      6.08%     84.97% |        2355      7.13%     92.09% |        2613      7.91%    100.00% (Unspecified)
board.cache_hierarchy.ruby_system.L1Cache_Controller.SM.Ack_all::total        33045                       (Unspecified)
board.cache_hierarchy.ruby_system.L1Cache_Controller.IS_I.DataS_fromL1 |           0      0.00%      0.00% |           1    100.00%    100.00% |           0      0.00%    100.00% |           0      0.00%    100.00% |           0      0.00%    100.00% |           0      0.00%    100.00% |           0      0.00%    100.00% |           0      0.00%    100.00% |           0      0.00%    100.00% |           0      0.00%    100.00% |           0      0.00%    100.00% |           0      0.00%    100.00% |           0      0.00%    100.00% |           0      0.00%    100.00% |           0      0.00%    100.00% |           0      0.00%    100.00% (Unspecified)
board.cache_hierarchy.ruby_system.L1Cache_Controller.IS_I.DataS_fromL1::total            1                       (Unspecified)
board.cache_hierarchy.ruby_system.L1Cache_Controller.IS_I.Data_all_Acks |           1      0.64%      0.64% |          34     21.79%     22.44% |          33     21.15%     43.59% |          30     19.23%     62.82% |          20     12.82%     75.64% |           4      2.56%     78.21% |           0      0.00%     78.21% |           4      2.56%     80.77% |           0      0.00%     80.77% |           5      3.21%     83.97% |           6      3.85%     87.82% |           5      3.21%     91.03% |           6      3.85%     94.87% |           1      0.64%     95.51% |           5      3.21%     98.72% |           2      1.28%    100.00% (Unspecified)
board.cache_hierarchy.ruby_system.L1Cache_Controller.IS_I.Data_all_Acks::total          156                       (Unspecified)
board.cache_hierarchy.ruby_system.L1Cache_Controller.M_I.Inv |           0      0.00%      0.00% |           0      0.00%      0.00% |           0      0.00%      0.00% |           1      3.85%      3.85% |           3     11.54%     15.38% |           2      7.69%     23.08% |           0      0.00%     23.08% |           0      0.00%     23.08% |           0      0.00%     23.08% |           0      0.00%     23.08% |           1      3.85%     26.92% |           4     15.38%     42.31% |           4     15.38%     57.69% |           3     11.54%     69.23% |           2      7.69%     76.92% |           6     23.08%    100.00% (Unspecified)
board.cache_hierarchy.ruby_system.L1Cache_Controller.M_I.Inv::total           26                       (Unspecified)
board.cache_hierarchy.ruby_system.L1Cache_Controller.M_I.Fwd_GETS |           2     40.00%     40.00% |           1     20.00%     60.00% |           0      0.00%     60.00% |           0      0.00%     60.00% |           1     20.00%     80.00% |           0      0.00%     80.00% |           0      0.00%     80.00% |           0      0.00%     80.00% |           0      0.00%     80.00% |           0      0.00%     80.00% |           0      0.00%     80.00% |           0      0.00%     80.00% |           0      0.00%     80.00% |           1     20.00%    100.00% |           0      0.00%    100.00% |           0      0.00%    100.00% (Unspecified)
board.cache_hierarchy.ruby_system.L1Cache_Controller.M_I.Fwd_GETS::total            5                       (Unspecified)
board.cache_hierarchy.ruby_system.L1Cache_Controller.M_I.WB_Ack |       48442      4.51%      4.51% |       46317      4.32%      8.83% |       45090      4.20%     13.03% |       44721      4.17%     17.20% |       45120      4.20%     21.40% |       47033      4.38%     25.79% |         297      0.03%     25.81% |      458563     42.73%     68.54% |         372      0.03%     68.58% |       48668      4.54%     73.11% |       47792      4.45%     77.57% |       47882      4.46%     82.03% |       48886      4.56%     86.58% |       47062      4.39%     90.97% |       48064      4.48%     95.45% |       48850      4.55%    100.00% (Unspecified)
board.cache_hierarchy.ruby_system.L1Cache_Controller.M_I.WB_Ack::total      1073159                       (Unspecified)
board.cache_hierarchy.ruby_system.L1Cache_Controller.SINK_WB_ACK.WB_Ack |           2      6.45%      6.45% |           1      3.23%      9.68% |           0      0.00%      9.68% |           1      3.23%     12.90% |           4     12.90%     25.81% |           2      6.45%     32.26% |           0      0.00%     32.26% |           0      0.00%     32.26% |           0      0.00%     32.26% |           0      0.00%     32.26% |           1      3.23%     35.48% |           4     12.90%     48.39% |           4     12.90%     61.29% |           4     12.90%     74.19% |           2      6.45%     80.65% |           6     19.35%    100.00% (Unspecified)
board.cache_hierarchy.ruby_system.L1Cache_Controller.SINK_WB_ACK.WB_Ack::total           31                       (Unspecified)
board.cache_hierarchy.ruby_system.L2Cache_Controller.L1_GET_INSTR |      722593     54.54%     54.54% |      602338     45.46%    100.00% (Unspecified)
board.cache_hierarchy.ruby_system.L2Cache_Controller.L1_GET_INSTR::total      1324931                       (Unspecified)
board.cache_hierarchy.ruby_system.L2Cache_Controller.L1_GETS |     3821764     48.81%     48.81% |     4007527     51.19%    100.00% (Unspecified)
board.cache_hierarchy.ruby_system.L2Cache_Controller.L1_GETS::total      7829291                       (Unspecified)
board.cache_hierarchy.ruby_system.L2Cache_Controller.L1_GETX |      274742     48.15%     48.15% |      295822     51.85%    100.00% (Unspecified)
board.cache_hierarchy.ruby_system.L2Cache_Controller.L1_GETX::total       570564                       (Unspecified)
board.cache_hierarchy.ruby_system.L2Cache_Controller.L1_UPGRADE |       17840     63.29%     63.29% |       10348     36.71%    100.00% (Unspecified)
board.cache_hierarchy.ruby_system.L2Cache_Controller.L1_UPGRADE::total        28188                       (Unspecified)
board.cache_hierarchy.ruby_system.L2Cache_Controller.L1_PUTX |      529950     49.38%     49.38% |      543219     50.62%    100.00% (Unspecified)
board.cache_hierarchy.ruby_system.L2Cache_Controller.L1_PUTX::total      1073169                       (Unspecified)
board.cache_hierarchy.ruby_system.L2Cache_Controller.L1_PUTX_old |          27     55.10%     55.10% |          22     44.90%    100.00% (Unspecified)
board.cache_hierarchy.ruby_system.L2Cache_Controller.L1_PUTX_old::total           49                       (Unspecified)
board.cache_hierarchy.ruby_system.L2Cache_Controller.L2_Replacement |      129644     49.69%     49.69% |      131254     50.31%    100.00% (Unspecified)
board.cache_hierarchy.ruby_system.L2Cache_Controller.L2_Replacement::total       260898                       (Unspecified)
board.cache_hierarchy.ruby_system.L2Cache_Controller.L2_Replacement_clean |      196408     48.97%     48.97% |      204642     51.03%    100.00% (Unspecified)
board.cache_hierarchy.ruby_system.L2Cache_Controller.L2_Replacement_clean::total       401050                       (Unspecified)
board.cache_hierarchy.ruby_system.L2Cache_Controller.Mem_Data |      330143     49.27%     49.27% |      339991     50.73%    100.00% (Unspecified)
board.cache_hierarchy.ruby_system.L2Cache_Controller.Mem_Data::total       670134                       (Unspecified)
board.cache_hierarchy.ruby_system.L2Cache_Controller.Mem_Ack |      326047     49.26%     49.26% |      335895     50.74%    100.00% (Unspecified)
board.cache_hierarchy.ruby_system.L2Cache_Controller.Mem_Ack::total       661942                       (Unspecified)
board.cache_hierarchy.ruby_system.L2Cache_Controller.WB_Data |       52176     43.59%     43.59% |       67521     56.41%    100.00% (Unspecified)
board.cache_hierarchy.ruby_system.L2Cache_Controller.WB_Data::total       119697                       (Unspecified)
board.cache_hierarchy.ruby_system.L2Cache_Controller.WB_Data_clean |       21350     54.76%     54.76% |       17635     45.24%    100.00% (Unspecified)
board.cache_hierarchy.ruby_system.L2Cache_Controller.WB_Data_clean::total        38985                       (Unspecified)
board.cache_hierarchy.ruby_system.L2Cache_Controller.Ack |      416018     51.49%     51.49% |      391916     48.51%    100.00% (Unspecified)
board.cache_hierarchy.ruby_system.L2Cache_Controller.Ack::total       807934                       (Unspecified)
board.cache_hierarchy.ruby_system.L2Cache_Controller.Ack_all |       91605     54.10%     54.10% |       77732     45.90%    100.00% (Unspecified)
board.cache_hierarchy.ruby_system.L2Cache_Controller.Ack_all::total       169337                       (Unspecified)
board.cache_hierarchy.ruby_system.L2Cache_Controller.Unblock |       41603     58.08%     58.08% |       30030     41.92%    100.00% (Unspecified)
board.cache_hierarchy.ruby_system.L2Cache_Controller.Unblock::total        71633                       (Unspecified)
board.cache_hierarchy.ruby_system.L2Cache_Controller.Exclusive_Unblock |      646652     49.24%     49.24% |      666624     50.76%    100.00% (Unspecified)
board.cache_hierarchy.ruby_system.L2Cache_Controller.Exclusive_Unblock::total      1313276                       (Unspecified)
board.cache_hierarchy.ruby_system.L2Cache_Controller.MEM_Inv |           2    100.00%    100.00% |           0      0.00%    100.00% (Unspecified)
board.cache_hierarchy.ruby_system.L2Cache_Controller.MEM_Inv::total            2                       (Unspecified)
board.cache_hierarchy.ruby_system.L2Cache_Controller.NP.L1_GET_INSTR |       30187     51.22%     51.22% |       28752     48.78%    100.00% (Unspecified)
board.cache_hierarchy.ruby_system.L2Cache_Controller.NP.L1_GET_INSTR::total        58939                       (Unspecified)
board.cache_hierarchy.ruby_system.L2Cache_Controller.NP.L1_GETS |      184461     50.70%     50.70% |      179363     49.30%    100.00% (Unspecified)
board.cache_hierarchy.ruby_system.L2Cache_Controller.NP.L1_GETS::total       363824                       (Unspecified)
board.cache_hierarchy.ruby_system.L2Cache_Controller.NP.L1_GETX |      115495     46.69%     46.69% |      131876     53.31%    100.00% (Unspecified)
board.cache_hierarchy.ruby_system.L2Cache_Controller.NP.L1_GETX::total       247371                       (Unspecified)
board.cache_hierarchy.ruby_system.L2Cache_Controller.NP.L1_PUTX_old |          13     54.17%     54.17% |          11     45.83%    100.00% (Unspecified)
board.cache_hierarchy.ruby_system.L2Cache_Controller.NP.L1_PUTX_old::total           24                       (Unspecified)
board.cache_hierarchy.ruby_system.L2Cache_Controller.SS.L1_GET_INSTR |      666848     54.91%     54.91% |      547666     45.09%    100.00% (Unspecified)
board.cache_hierarchy.ruby_system.L2Cache_Controller.SS.L1_GET_INSTR::total      1214514                       (Unspecified)
board.cache_hierarchy.ruby_system.L2Cache_Controller.SS.L1_GETS |     3397261     48.61%     48.61% |     3590848     51.39%    100.00% (Unspecified)
board.cache_hierarchy.ruby_system.L2Cache_Controller.SS.L1_GETS::total      6988109                       (Unspecified)
board.cache_hierarchy.ruby_system.L2Cache_Controller.SS.L1_GETX |        3117     56.14%     56.14% |        2435     43.86%    100.00% (Unspecified)
board.cache_hierarchy.ruby_system.L2Cache_Controller.SS.L1_GETX::total         5552                       (Unspecified)
board.cache_hierarchy.ruby_system.L2Cache_Controller.SS.L1_UPGRADE |       17289     62.89%     62.89% |       10204     37.11%    100.00% (Unspecified)
board.cache_hierarchy.ruby_system.L2Cache_Controller.SS.L1_UPGRADE::total        27493                       (Unspecified)
board.cache_hierarchy.ruby_system.L2Cache_Controller.SS.L1_PUTX |           4     80.00%     80.00% |           1     20.00%    100.00% (Unspecified)
board.cache_hierarchy.ruby_system.L2Cache_Controller.SS.L1_PUTX::total            5                       (Unspecified)
board.cache_hierarchy.ruby_system.L2Cache_Controller.SS.L2_Replacement |        2272     70.49%     70.49% |         951     29.51%    100.00% (Unspecified)
board.cache_hierarchy.ruby_system.L2Cache_Controller.SS.L2_Replacement::total         3223                       (Unspecified)
board.cache_hierarchy.ruby_system.L2Cache_Controller.SS.L2_Replacement_clean |       55653     52.32%     52.32% |       50720     47.68%    100.00% (Unspecified)
board.cache_hierarchy.ruby_system.L2Cache_Controller.SS.L2_Replacement_clean::total       106373                       (Unspecified)
board.cache_hierarchy.ruby_system.L2Cache_Controller.M.L1_GETS |      179184     48.56%     48.56% |      189819     51.44%    100.00% (Unspecified)
board.cache_hierarchy.ruby_system.L2Cache_Controller.M.L1_GETS::total       369003                       (Unspecified)
board.cache_hierarchy.ruby_system.L2Cache_Controller.M.L1_GETX |      146092     49.64%     49.64% |      148233     50.36%    100.00% (Unspecified)
board.cache_hierarchy.ruby_system.L2Cache_Controller.M.L1_GETX::total       294325                       (Unspecified)
board.cache_hierarchy.ruby_system.L2Cache_Controller.M.L2_Replacement |      122676     49.45%     49.45% |      125398     50.55%    100.00% (Unspecified)
board.cache_hierarchy.ruby_system.L2Cache_Controller.M.L2_Replacement::total       248074                       (Unspecified)
board.cache_hierarchy.ruby_system.L2Cache_Controller.M.L2_Replacement_clean |       79843     50.70%     50.70% |       77639     49.30%    100.00% (Unspecified)
board.cache_hierarchy.ruby_system.L2Cache_Controller.M.L2_Replacement_clean::total       157482                       (Unspecified)
board.cache_hierarchy.ruby_system.L2Cache_Controller.MT.L1_GETS |       41603     58.08%     58.08% |       30030     41.92%    100.00% (Unspecified)
board.cache_hierarchy.ruby_system.L2Cache_Controller.MT.L1_GETS::total        71633                       (Unspecified)
board.cache_hierarchy.ruby_system.L2Cache_Controller.MT.L1_GETX |        8854     43.50%     43.50% |       11498     56.50%    100.00% (Unspecified)
board.cache_hierarchy.ruby_system.L2Cache_Controller.MT.L1_GETX::total        20352                       (Unspecified)
board.cache_hierarchy.ruby_system.L2Cache_Controller.MT.L1_PUTX |      529942     49.38%     49.38% |      543217     50.62%    100.00% (Unspecified)
board.cache_hierarchy.ruby_system.L2Cache_Controller.MT.L1_PUTX::total      1073159                       (Unspecified)
board.cache_hierarchy.ruby_system.L2Cache_Controller.MT.L2_Replacement |        4696     48.91%     48.91% |        4905     51.09%    100.00% (Unspecified)
board.cache_hierarchy.ruby_system.L2Cache_Controller.MT.L2_Replacement::total         9601                       (Unspecified)
board.cache_hierarchy.ruby_system.L2Cache_Controller.MT.L2_Replacement_clean |       60906     44.40%     44.40% |       76282     55.60%    100.00% (Unspecified)
board.cache_hierarchy.ruby_system.L2Cache_Controller.MT.L2_Replacement_clean::total       137188                       (Unspecified)
board.cache_hierarchy.ruby_system.L2Cache_Controller.MT.MEM_Inv |           1    100.00%    100.00% |           0      0.00%    100.00% (Unspecified)
board.cache_hierarchy.ruby_system.L2Cache_Controller.MT.MEM_Inv::total            1                       (Unspecified)
board.cache_hierarchy.ruby_system.L2Cache_Controller.M_I.L1_GET_INSTR |         193     52.88%     52.88% |         172     47.12%    100.00% (Unspecified)
board.cache_hierarchy.ruby_system.L2Cache_Controller.M_I.L1_GET_INSTR::total          365                       (Unspecified)
board.cache_hierarchy.ruby_system.L2Cache_Controller.M_I.L1_GETS |         134     49.45%     49.45% |         137     50.55%    100.00% (Unspecified)
board.cache_hierarchy.ruby_system.L2Cache_Controller.M_I.L1_GETS::total          271                       (Unspecified)
board.cache_hierarchy.ruby_system.L2Cache_Controller.M_I.L1_GETX |          66     49.62%     49.62% |          67     50.38%    100.00% (Unspecified)
board.cache_hierarchy.ruby_system.L2Cache_Controller.M_I.L1_GETX::total          133                       (Unspecified)
board.cache_hierarchy.ruby_system.L2Cache_Controller.M_I.L1_PUTX_old |           2    100.00%    100.00% |           0      0.00%    100.00% (Unspecified)
board.cache_hierarchy.ruby_system.L2Cache_Controller.M_I.L1_PUTX_old::total            2                       (Unspecified)
board.cache_hierarchy.ruby_system.L2Cache_Controller.M_I.Mem_Ack |      326047     49.26%     49.26% |      335895     50.74%    100.00% (Unspecified)
board.cache_hierarchy.ruby_system.L2Cache_Controller.M_I.Mem_Ack::total       661942                       (Unspecified)
board.cache_hierarchy.ruby_system.L2Cache_Controller.MT_I.L1_GETS |           1    100.00%    100.00% |           0      0.00%    100.00% (Unspecified)
board.cache_hierarchy.ruby_system.L2Cache_Controller.MT_I.L1_GETS::total            1                       (Unspecified)
board.cache_hierarchy.ruby_system.L2Cache_Controller.MT_I.L1_PUTX_old |           1     33.33%     33.33% |           2     66.67%    100.00% (Unspecified)
board.cache_hierarchy.ruby_system.L2Cache_Controller.MT_I.L1_PUTX_old::total            3                       (Unspecified)
board.cache_hierarchy.ruby_system.L2Cache_Controller.MT_I.WB_Data |        4104     49.65%     49.65% |        4162     50.35%    100.00% (Unspecified)
board.cache_hierarchy.ruby_system.L2Cache_Controller.MT_I.WB_Data::total         8266                       (Unspecified)
board.cache_hierarchy.ruby_system.L2Cache_Controller.MT_I.Ack_all |         593     44.39%     44.39% |         743     55.61%    100.00% (Unspecified)
board.cache_hierarchy.ruby_system.L2Cache_Controller.MT_I.Ack_all::total         1336                       (Unspecified)
board.cache_hierarchy.ruby_system.L2Cache_Controller.MT_I.MEM_Inv |           1    100.00%    100.00% |           0      0.00%    100.00% (Unspecified)
board.cache_hierarchy.ruby_system.L2Cache_Controller.MT_I.MEM_Inv::total            1                       (Unspecified)
board.cache_hierarchy.ruby_system.L2Cache_Controller.MCT_I.L1_GETS |           2     66.67%     66.67% |           1     33.33%    100.00% (Unspecified)
board.cache_hierarchy.ruby_system.L2Cache_Controller.MCT_I.L1_GETS::total            3                       (Unspecified)
board.cache_hierarchy.ruby_system.L2Cache_Controller.MCT_I.L1_PUTX_old |          11     55.00%     55.00% |           9     45.00%    100.00% (Unspecified)
board.cache_hierarchy.ruby_system.L2Cache_Controller.MCT_I.L1_PUTX_old::total           20                       (Unspecified)
board.cache_hierarchy.ruby_system.L2Cache_Controller.MCT_I.WB_Data |       27815     35.31%     35.31% |       50964     64.69%    100.00% (Unspecified)
board.cache_hierarchy.ruby_system.L2Cache_Controller.MCT_I.WB_Data::total        78779                       (Unspecified)
board.cache_hierarchy.ruby_system.L2Cache_Controller.MCT_I.WB_Data_clean |           4    100.00%    100.00% |           0      0.00%    100.00% (Unspecified)
board.cache_hierarchy.ruby_system.L2Cache_Controller.MCT_I.WB_Data_clean::total            4                       (Unspecified)
board.cache_hierarchy.ruby_system.L2Cache_Controller.MCT_I.Ack_all |       33087     56.65%     56.65% |       25318     43.35%    100.00% (Unspecified)
board.cache_hierarchy.ruby_system.L2Cache_Controller.MCT_I.Ack_all::total        58405                       (Unspecified)
board.cache_hierarchy.ruby_system.L2Cache_Controller.I_I.L1_GET_INSTR |           7     50.00%     50.00% |           7     50.00%    100.00% (Unspecified)
board.cache_hierarchy.ruby_system.L2Cache_Controller.I_I.L1_GET_INSTR::total           14                       (Unspecified)
board.cache_hierarchy.ruby_system.L2Cache_Controller.I_I.L1_GETS |           1    100.00%    100.00% |           0      0.00%    100.00% (Unspecified)
board.cache_hierarchy.ruby_system.L2Cache_Controller.I_I.L1_GETS::total            1                       (Unspecified)
board.cache_hierarchy.ruby_system.L2Cache_Controller.I_I.Ack |      408752     51.19%     51.19% |      389785     48.81%    100.00% (Unspecified)
board.cache_hierarchy.ruby_system.L2Cache_Controller.I_I.Ack::total       798537                       (Unspecified)
board.cache_hierarchy.ruby_system.L2Cache_Controller.I_I.Ack_all |       55653     52.32%     52.32% |       50720     47.68%    100.00% (Unspecified)
board.cache_hierarchy.ruby_system.L2Cache_Controller.I_I.Ack_all::total       106373                       (Unspecified)
board.cache_hierarchy.ruby_system.L2Cache_Controller.S_I.L1_GETX |           1    100.00%    100.00% |           0      0.00%    100.00% (Unspecified)
board.cache_hierarchy.ruby_system.L2Cache_Controller.S_I.L1_GETX::total            1                       (Unspecified)
board.cache_hierarchy.ruby_system.L2Cache_Controller.S_I.Ack |        7266     77.32%     77.32% |        2131     22.68%    100.00% (Unspecified)
board.cache_hierarchy.ruby_system.L2Cache_Controller.S_I.Ack::total         9397                       (Unspecified)
board.cache_hierarchy.ruby_system.L2Cache_Controller.S_I.Ack_all |        2272     70.49%     70.49% |         951     29.51%    100.00% (Unspecified)
board.cache_hierarchy.ruby_system.L2Cache_Controller.S_I.Ack_all::total         3223                       (Unspecified)
board.cache_hierarchy.ruby_system.L2Cache_Controller.ISS.L1_GETS |        7840     53.54%     53.54% |        6804     46.46%    100.00% (Unspecified)
board.cache_hierarchy.ruby_system.L2Cache_Controller.ISS.L1_GETS::total        14644                       (Unspecified)
board.cache_hierarchy.ruby_system.L2Cache_Controller.ISS.L1_GETX |          16     72.73%     72.73% |           6     27.27%    100.00% (Unspecified)
board.cache_hierarchy.ruby_system.L2Cache_Controller.ISS.L1_GETX::total           22                       (Unspecified)
board.cache_hierarchy.ruby_system.L2Cache_Controller.ISS.L2_Replacement_clean |           6     85.71%     85.71% |           1     14.29%    100.00% (Unspecified)
board.cache_hierarchy.ruby_system.L2Cache_Controller.ISS.L2_Replacement_clean::total            7                       (Unspecified)
board.cache_hierarchy.ruby_system.L2Cache_Controller.ISS.Mem_Data |      176621     50.58%     50.58% |      172559     49.42%    100.00% (Unspecified)
board.cache_hierarchy.ruby_system.L2Cache_Controller.ISS.Mem_Data::total       349180                       (Unspecified)
board.cache_hierarchy.ruby_system.L2Cache_Controller.IS.L1_GET_INSTR |       25358     49.63%     49.63% |       25741     50.37%    100.00% (Unspecified)
board.cache_hierarchy.ruby_system.L2Cache_Controller.IS.L1_GET_INSTR::total        51099                       (Unspecified)
[...]
board.processor.switch8.core.mmu.itb.wrAccesses       480842                       # TLB accesses on write requests (Count)
board.processor.switch8.core.mmu.itb.rdMisses            0                       # TLB misses on read requests (Count)
board.processor.switch8.core.mmu.itb.wrMisses           64                       # TLB misses on write requests (Count)
board.processor.switch8.core.mmu.itb.walker.power_state.pwrStateResidencyTicks::UNDEFINED 19826794951076                       # Cumulative time (in ticks) in various power states (Tick)
board.processor.switch8.core.power_state.numTransitions          377                       # Number of power state transitions (Count)
board.processor.switch8.core.power_state.ticksClkGated::samples          189                       # Distribution of time spent in the clock gated state (Tick)
board.processor.switch8.core.power_state.ticksClkGated::mean 977033172.259259                       # Distribution of time spent in the clock gated state (Tick)
board.processor.switch8.core.power_state.ticksClkGated::stdev 108681279.536791                       # Distribution of time spent in the clock gated state (Tick)
board.processor.switch8.core.power_state.ticksClkGated::1000-5e+10          189    100.00%    100.00% # Distribution of time spent in the clock gated state (Tick)
board.processor.switch8.core.power_state.ticksClkGated::min_value    183998153                       # Distribution of time spent in the clock gated state (Tick)
board.processor.switch8.core.power_state.ticksClkGated::max_value    997281387                       # Distribution of time spent in the clock gated state (Tick)
board.processor.switch8.core.power_state.ticksClkGated::total          189                       # Distribution of time spent in the clock gated state (Tick)
board.processor.switch8.core.power_state.pwrStateResidencyTicks::ON   1101795433                       # Cumulative time (in ticks) in various power states (Tick)
board.processor.switch8.core.power_state.pwrStateResidencyTicks::CLK_GATED 184659269557                       # Cumulative time (in ticks) in various power states (Tick)
board.processor.switch8.core.power_state.pwrStateResidencyTicks::OFF 19641033886086                       # Cumulative time (in ticks) in various power states (Tick)
board.processor.switch8.core.thread_0.numInsts            0                       # Number of Instructions committed (Count)
board.processor.switch8.core.thread_0.numOps            0                       # Number of Ops committed (Count)
board.processor.switch8.core.thread_0.numMemRefs            0                       # Number of Memory References (Count)
board.processor.switch9.core.numCycles      556532813                       # Number of cpu cycles simulated (Cycle)
board.processor.switch9.core.numWorkItemsStarted            0                       # Number of work items this cpu started (Count)
board.processor.switch9.core.numWorkItemsCompleted            0                       # Number of work items this cpu completed (Count)
board.processor.switch9.core.exec_context.thread_0.numInsts     50822012                       # Number of instructions committed (Count)
board.processor.switch9.core.exec_context.thread_0.numOps     86544629                       # Number of ops (including micro ops) committed (Count)
board.processor.switch9.core.exec_context.thread_0.numIntAluAccesses     55713130                       # Number of integer alu accesses (Count)
board.processor.switch9.core.exec_context.thread_0.numFpAluAccesses     37056818                       # Number of float alu accesses (Count)
board.processor.switch9.core.exec_context.thread_0.numVecAluAccesses            0                       # Number of vector alu accesses (Count)
board.processor.switch9.core.exec_context.thread_0.numCallsReturns       228873                       # Number of times a function call or return occured (Count)
board.processor.switch9.core.exec_context.thread_0.numCondCtrlInsts      4415354                       # Number of instructions that are conditional controls (Count)
board.processor.switch9.core.exec_context.thread_0.numIntInsts     55713130                       # Number of integer instructions (Count)
board.processor.switch9.core.exec_context.thread_0.numFpInsts     37056818                       # Number of float instructions (Count)
board.processor.switch9.core.exec_context.thread_0.numVecInsts            0                       # Number of vector instructions (Count)
board.processor.switch9.core.exec_context.thread_0.numIntRegReads     75876400                       # Number of times the integer registers were read (Count)
board.processor.switch9.core.exec_context.thread_0.numIntRegWrites     39623244                       # Number of times the integer registers were written (Count)
board.processor.switch9.core.exec_context.thread_0.numFpRegReads     68637328                       # Number of times the floating registers were read (Count)
board.processor.switch9.core.exec_context.thread_0.numFpRegWrites     34169462                       # Number of times the floating registers were written (Count)
board.processor.switch9.core.exec_context.thread_0.numVecRegReads            0                       # Number of times the vector registers were read (Count)
board.processor.switch9.core.exec_context.thread_0.numVecRegWrites            0                       # Number of times the vector registers were written (Count)
board.processor.switch9.core.exec_context.thread_0.numVecPredRegReads            0                       # Number of times the predicate registers were read (Count)
board.processor.switch9.core.exec_context.thread_0.numVecPredRegWrites            0                       # Number of times the predicate registers were written (Count)
board.processor.switch9.core.exec_context.thread_0.numCCRegReads     32582706                       # Number of times the CC registers were read (Count)
board.processor.switch9.core.exec_context.thread_0.numCCRegWrites     25914824                       # Number of times the CC registers were written (Count)
board.processor.switch9.core.exec_context.thread_0.numMiscRegReads     22015137                       # Number of times the Misc registers were read (Count)
board.processor.switch9.core.exec_context.thread_0.numMiscRegWrites        14699                       # Number of times the Misc registers were written (Count)
board.processor.switch9.core.exec_context.thread_0.numMemRefs     12187161                       # Number of memory refs (Count)
board.processor.switch9.core.exec_context.thread_0.numLoadInsts      9731437                       # Number of load instructions (Count)
board.processor.switch9.core.exec_context.thread_0.numStoreInsts      2455724                       # Number of store instructions (Count)
board.processor.switch9.core.exec_context.thread_0.numIdleCycles 380514630.394811                       # Number of idle cycles (Cycle)
board.processor.switch9.core.exec_context.thread_0.numBusyCycles 176018182.605189                       # Number of busy cycles (Cycle)
board.processor.switch9.core.exec_context.thread_0.notIdleFraction     0.316276                       # Percentage of non-idle cycles (Ratio)
board.processor.switch9.core.exec_context.thread_0.idleFraction     0.683724                       # Percentage of idle cycles (Ratio)
board.processor.switch9.core.exec_context.thread_0.numBranches      4745191                       # Number of branches fetched (Count)
board.processor.switch9.core.exec_context.thread_0.statExecutedInstType::No_OpClass       627367      0.72%      0.72% # Class of executed instruction. (Count)
board.processor.switch9.core.exec_context.thread_0.statExecutedInstType::IntAlu     47970203     55.43%     56.15% # Class of executed instruction. (Count)
board.processor.switch9.core.exec_context.thread_0.statExecutedInstType::IntMult      1604805      1.85%     58.01% # Class of executed instruction. (Count)
board.processor.switch9.core.exec_context.thread_0.statExecutedInstType::IntDiv        10012      0.01%     58.02% # Class of executed instruction. (Count)
board.processor.switch9.core.exec_context.thread_0.statExecutedInstType::FloatAdd      4408347      5.09%     63.11% # Class of executed instruction. (Count)
board.processor.switch9.core.exec_context.thread_0.statExecutedInstType::FloatCmp            0      0.00%     63.11% # Class of executed instruction. (Count)
board.processor.switch9.core.exec_context.thread_0.statExecutedInstType::FloatCvt         1264      0.00%     63.11% # Class of executed instruction. (Count)
board.processor.switch9.core.exec_context.thread_0.statExecutedInstType::FloatMult            0      0.00%     63.11% # Class of executed instruction. (Count)
board.processor.switch9.core.exec_context.thread_0.statExecutedInstType::FloatMultAcc            0      0.00%     63.11% # Class of executed instruction. (Count)
board.processor.switch9.core.exec_context.thread_0.statExecutedInstType::FloatDiv            0      0.00%     63.11% # Class of executed instruction. (Count)
board.processor.switch9.core.exec_context.thread_0.statExecutedInstType::FloatMisc            0      0.00%     63.11% # Class of executed instruction. (Count)
board.processor.switch9.core.exec_context.thread_0.statExecutedInstType::FloatSqrt            0      0.00%     63.11% # Class of executed instruction. (Count)
board.processor.switch9.core.exec_context.thread_0.statExecutedInstType::SimdAdd            0      0.00%     63.11% # Class of executed instruction. (Count)
board.processor.switch9.core.exec_context.thread_0.statExecutedInstType::SimdAddAcc            0      0.00%     63.11% # Class of executed instruction. (Count)
board.processor.switch9.core.exec_context.thread_0.statExecutedInstType::SimdAlu      1154926      1.33%     64.45% # Class of executed instruction. (Count)
board.processor.switch9.core.exec_context.thread_0.statExecutedInstType::SimdCmp            0      0.00%     64.45% # Class of executed instruction. (Count)
board.processor.switch9.core.exec_context.thread_0.statExecutedInstType::SimdCvt            0      0.00%     64.45% # Class of executed instruction. (Count)
board.processor.switch9.core.exec_context.thread_0.statExecutedInstType::SimdMisc      1913746      2.21%     66.66% # Class of executed instruction. (Count)
board.processor.switch9.core.exec_context.thread_0.statExecutedInstType::SimdMult            0      0.00%     66.66% # Class of executed instruction. (Count)
board.processor.switch9.core.exec_context.thread_0.statExecutedInstType::SimdMultAcc            0      0.00%     66.66% # Class of executed instruction. (Count)
board.processor.switch9.core.exec_context.thread_0.statExecutedInstType::SimdShift            0      0.00%     66.66% # Class of executed instruction. (Count)
board.processor.switch9.core.exec_context.thread_0.statExecutedInstType::SimdShiftAcc            0      0.00%     66.66% # Class of executed instruction. (Count)
board.processor.switch9.core.exec_context.thread_0.statExecutedInstType::SimdDiv            0      0.00%     66.66% # Class of executed instruction. (Count)
board.processor.switch9.core.exec_context.thread_0.statExecutedInstType::SimdSqrt            0      0.00%     66.66% # Class of executed instruction. (Count)
board.processor.switch9.core.exec_context.thread_0.statExecutedInstType::SimdFloatAdd      8263121      9.55%     76.21% # Class of executed instruction. (Count)
board.processor.switch9.core.exec_context.thread_0.statExecutedInstType::SimdFloatAlu            0      0.00%     76.21% # Class of executed instruction. (Count)
board.processor.switch9.core.exec_context.thread_0.statExecutedInstType::SimdFloatCmp         2280      0.00%     76.21% # Class of executed instruction. (Count)
board.processor.switch9.core.exec_context.thread_0.statExecutedInstType::SimdFloatCvt      2061661      2.38%     78.59% # Class of executed instruction. (Count)
board.processor.switch9.core.exec_context.thread_0.statExecutedInstType::SimdFloatDiv       270630      0.31%     78.91% # Class of executed instruction. (Count)
board.processor.switch9.core.exec_context.thread_0.statExecutedInstType::SimdFloatMisc            0      0.00%     78.91% # Class of executed instruction. (Count)
board.processor.switch9.core.exec_context.thread_0.statExecutedInstType::SimdFloatMult      5983917      6.91%     85.82% # Class of executed instruction. (Count)
board.processor.switch9.core.exec_context.thread_0.statExecutedInstType::SimdFloatMultAcc            0      0.00%     85.82% # Class of executed instruction. (Count)
board.processor.switch9.core.exec_context.thread_0.statExecutedInstType::SimdFloatSqrt        85192      0.10%     85.92% # Class of executed instruction. (Count)
board.processor.switch9.core.exec_context.thread_0.statExecutedInstType::SimdReduceAdd            0      0.00%     85.92% # Class of executed instruction. (Count)
board.processor.switch9.core.exec_context.thread_0.statExecutedInstType::SimdReduceAlu            0      0.00%     85.92% # Class of executed instruction. (Count)
board.processor.switch9.core.exec_context.thread_0.statExecutedInstType::SimdReduceCmp            0      0.00%     85.92% # Class of executed instruction. (Count)
board.processor.switch9.core.exec_context.thread_0.statExecutedInstType::SimdFloatReduceAdd            0      0.00%     85.92% # Class of executed instruction. (Count)
board.processor.switch9.core.exec_context.thread_0.statExecutedInstType::SimdFloatReduceCmp            0      0.00%     85.92% # Class of executed instruction. (Count)
board.processor.switch9.core.exec_context.thread_0.statExecutedInstType::SimdAes            0      0.00%     85.92% # Class of executed instruction. (Count)
board.processor.switch9.core.exec_context.thread_0.statExecutedInstType::SimdAesMix            0      0.00%     85.92% # Class of executed instruction. (Count)
board.processor.switch9.core.exec_context.thread_0.statExecutedInstType::SimdSha1Hash            0      0.00%     85.92% # Class of executed instruction. (Count)
board.processor.switch9.core.exec_context.thread_0.statExecutedInstType::SimdSha1Hash2            0      0.00%     85.92% # Class of executed instruction. (Count)
board.processor.switch9.core.exec_context.thread_0.statExecutedInstType::SimdSha256Hash            0      0.00%     85.92% # Class of executed instruction. (Count)
board.processor.switch9.core.exec_context.thread_0.statExecutedInstType::SimdSha256Hash2            0      0.00%     85.92% # Class of executed instruction. (Count)
board.processor.switch9.core.exec_context.thread_0.statExecutedInstType::SimdShaSigma2            0      0.00%     85.92% # Class of executed instruction. (Count)
board.processor.switch9.core.exec_context.thread_0.statExecutedInstType::SimdShaSigma3            0      0.00%     85.92% # Class of executed instruction. (Count)
board.processor.switch9.core.exec_context.thread_0.statExecutedInstType::SimdPredAlu            0      0.00%     85.92% # Class of executed instruction. (Count)
board.processor.switch9.core.exec_context.thread_0.statExecutedInstType::MemRead      5500405      6.36%     92.27% # Class of executed instruction. (Count)
board.processor.switch9.core.exec_context.thread_0.statExecutedInstType::MemWrite      1356960      1.57%     93.84% # Class of executed instruction. (Count)
board.processor.switch9.core.exec_context.thread_0.statExecutedInstType::FloatMemRead      4231032      4.89%     98.73% # Class of executed instruction. (Count)
board.processor.switch9.core.exec_context.thread_0.statExecutedInstType::FloatMemWrite      1098764      1.27%    100.00% # Class of executed instruction. (Count)
board.processor.switch9.core.exec_context.thread_0.statExecutedInstType::IprAccess            0      0.00%    100.00% # Class of executed instruction. (Count)
board.processor.switch9.core.exec_context.thread_0.statExecutedInstType::InstPrefetch            0      0.00%    100.00% # Class of executed instruction. (Count)
board.processor.switch9.core.exec_context.thread_0.statExecutedInstType::total     86544632                       # Class of executed instruction. (Count)
board.processor.switch9.core.mmu.dtb.rdAccesses      9840336                       # TLB accesses on read requests (Count)
board.processor.switch9.core.mmu.dtb.wrAccesses      2459285                       # TLB accesses on write requests (Count)
board.processor.switch9.core.mmu.dtb.rdMisses        72023                       # TLB misses on read requests (Count)
board.processor.switch9.core.mmu.dtb.wrMisses         1406                       # TLB misses on write requests (Count)
board.processor.switch9.core.mmu.dtb.walker.power_state.pwrStateResidencyTicks::UNDEFINED 19826794951076                       # Cumulative time (in ticks) in various power states (Tick)
board.processor.switch9.core.mmu.itb.rdAccesses            0                       # TLB accesses on read requests (Count)
board.processor.switch9.core.mmu.itb.wrAccesses     68779413                       # TLB accesses on write requests (Count)
board.processor.switch9.core.mmu.itb.rdMisses            0                       # TLB misses on read requests (Count)
board.processor.switch9.core.mmu.itb.wrMisses         3086                       # TLB misses on write requests (Count)
board.processor.switch9.core.mmu.itb.walker.power_state.pwrStateResidencyTicks::UNDEFINED 19826794951076                       # Cumulative time (in ticks) in various power states (Tick)
board.processor.switch9.core.power_state.numTransitions          338                       # Number of power state transitions (Count)
board.processor.switch9.core.power_state.ticksClkGated::samples          169                       # Distribution of time spent in the clock gated state (Tick)
board.processor.switch9.core.power_state.ticksClkGated::mean 751762690.177515                       # Distribution of time spent in the clock gated state (Tick)
board.processor.switch9.core.power_state.ticksClkGated::stdev 394950116.523688                       # Distribution of time spent in the clock gated state (Tick)
board.processor.switch9.core.power_state.ticksClkGated::1000-5e+10          169    100.00%    100.00% # Distribution of time spent in the clock gated state (Tick)
board.processor.switch9.core.power_state.ticksClkGated::min_value       435565                       # Distribution of time spent in the clock gated state (Tick)
board.processor.switch9.core.power_state.ticksClkGated::max_value    997122213                       # Distribution of time spent in the clock gated state (Tick)
board.processor.switch9.core.power_state.ticksClkGated::total          169                       # Distribution of time spent in the clock gated state (Tick)
board.processor.switch9.core.power_state.pwrStateResidencyTicks::ON  58787088357                       # Cumulative time (in ticks) in various power states (Tick)
board.processor.switch9.core.power_state.pwrStateResidencyTicks::CLK_GATED 127047894640                       # Cumulative time (in ticks) in various power states (Tick)
board.processor.switch9.core.power_state.pwrStateResidencyTicks::OFF 19640959968079                       # Cumulative time (in ticks) in various power states (Tick)
board.processor.switch9.core.thread_0.numInsts            0                       # Number of Instructions committed (Count)
board.processor.switch9.core.thread_0.numOps            0                       # Number of Ops committed (Count)
board.processor.switch9.core.thread_0.numMemRefs            0                       # Number of Memory References (Count)
board.workload.inst.arm                             0                       # number of arm instructions executed (Count)
board.workload.inst.quiesce                         0                       # number of quiesce instructions executed (Count)

---------- End Simulation Statistics   ----------
